@<TRIPOS>MOLECULE
IRMOF-1
 3392 3072    1    0    0
SMALL
NO_CHARGES
****
Energy = 0

@<TRIPOS>ATOM
      1 _Zn1        7.5791    5.3369    5.3369 _Zn1    1             0.000000
      2 _Zn1       20.4951    7.5791    5.3369 _Zn1    1             0.000000
      3 _Zn1       18.2529   20.4951    5.3369 _Zn1    1             0.000000
      4 _Zn1        5.3369   18.2529    5.3369 _Zn1    1             0.000000
      5 _Zn1        7.5791   20.4951   20.4951 _Zn1    1             0.000000
      6 _Zn1       20.4951   18.2529   20.4951 _Zn1    1             0.000000
      7 _Zn1       18.2529    5.3369   20.4951 _Zn1    1             0.000000
      8 _Zn1        5.3369    7.5791   20.4951 _Zn1    1             0.000000
      9 _Zn1        5.3369    7.5791    5.3369 _Zn1    1             0.000000
     10 _Zn1        5.3369   20.4951    7.5791 _Zn1    1             0.000000
     11 _Zn1        5.3369   18.2529   20.4951 _Zn1    1             0.000000
     12 _Zn1        5.3369    5.3369   18.2529 _Zn1    1             0.000000
     13 _Zn1       20.4951    7.5791   20.4951 _Zn1    1             0.000000
     14 _Zn1       20.4951   20.4951   18.2529 _Zn1    1             0.000000
     15 _Zn1       20.4951   18.2529    5.3369 _Zn1    1             0.000000
     16 _Zn1       20.4951    5.3369    7.5791 _Zn1    1             0.000000
     17 _Zn1       18.2529    5.3369    5.3369 _Zn1    1             0.000000
     18 _Zn1        5.3369    5.3369    7.5791 _Zn1    1             0.000000
     19 _Zn1        7.5791    5.3369   20.4951 _Zn1    1             0.000000
     20 _Zn1       20.4951    5.3369   18.2529 _Zn1    1             0.000000
     21 _Zn1       18.2529   20.4951   20.4951 _Zn1    1             0.000000
     22 _Zn1        5.3369   20.4951   18.2529 _Zn1    1             0.000000
     23 _Zn1        7.5791   20.4951    5.3369 _Zn1    1             0.000000
     24 _Zn1       20.4951   20.4951    7.5791 _Zn1    1             0.000000
     25 _Zn1        7.5791   18.2529   18.2529 _Zn1    1             0.000000
     26 _Zn1       18.2529    7.5791   18.2529 _Zn1    1             0.000000
     27 _Zn1        7.5791    7.5791    7.5791 _Zn1    1             0.000000
     28 _Zn1       18.2529   18.2529    7.5791 _Zn1    1             0.000000
     29 _Zn1       18.2529   18.2529   18.2529 _Zn1    1             0.000000
     30 _Zn1        7.5791   18.2529    7.5791 _Zn1    1             0.000000
     31 _Zn1       18.2529    7.5791    7.5791 _Zn1    1             0.000000
     32 _Zn1        7.5791    7.5791   18.2529 _Zn1    1             0.000000
     33  _O1        6.4580    6.4580    6.4580  _O1    1             0.000000
     34  _O1       19.3740    6.4580    6.4580  _O1    1             0.000000
     35  _O1       19.3740   19.3740    6.4580  _O1    1             0.000000
     36  _O1        6.4580   19.3740    6.4580  _O1    1             0.000000
     37  _O1        6.4580   19.3740   19.3740  _O1    1             0.000000
     38  _O1       19.3740   19.3740   19.3740  _O1    1             0.000000
     39  _O1       19.3740    6.4580   19.3740  _O1    1             0.000000
     40  _O1        6.4580    6.4580   19.3740  _O1    1             0.000000
     41  _O2        7.2820    5.6340    3.4615  _O2    1             0.000000
     42  _O2       20.1980    7.2820    3.4615  _O2    1             0.000000
     43  _O2       18.5500   20.1980    3.4615  _O2    1             0.000000
     44  _O2        5.6340   18.5500    3.4615  _O2    1             0.000000
     45  _O2        7.2820   20.1980   22.3705  _O2    1             0.000000
     46  _O2       20.1980   18.5500   22.3705  _O2    1             0.000000
     47  _O2       18.5500    5.6340   22.3705  _O2    1             0.000000
     48  _O2        5.6340    7.2820   22.3705  _O2    1             0.000000
     49  _O2        3.4615    7.2820    5.6340  _O2    1             0.000000
     50  _O2        3.4615   20.1980    7.2820  _O2    1             0.000000
     51  _O2        3.4615   18.5500   20.1980  _O2    1             0.000000
     52  _O2        3.4615    5.6340   18.5500  _O2    1             0.000000
     53  _O2       22.3705    7.2820   20.1980  _O2    1             0.000000
     54  _O2       22.3705   20.1980   18.5500  _O2    1             0.000000
     55  _O2       22.3705   18.5500    5.6340  _O2    1             0.000000
     56  _O2       22.3705    5.6340    7.2820  _O2    1             0.000000
     57  _O2       18.5500    3.4615    5.6340  _O2    1             0.000000
     58  _O2        5.6340    3.4615    7.2820  _O2    1             0.000000
     59  _O2        7.2820    3.4615   20.1980  _O2    1             0.000000
     60  _O2       20.1980    3.4615   18.5500  _O2    1             0.000000
     61  _O2       18.5500   22.3705   20.1980  _O2    1             0.000000
     62  _O2        5.6340   22.3705   18.5500  _O2    1             0.000000
     63  _O2        7.2820   22.3705    5.6340  _O2    1             0.000000
     64  _O2       20.1980   22.3705    7.2820  _O2    1             0.000000
     65  _O2       18.5500   20.1980   22.3705  _O2    1             0.000000
     66  _O2        5.6340   18.5500   22.3705  _O2    1             0.000000
     67  _O2        7.2820    5.6340   22.3705  _O2    1             0.000000
     68  _O2       20.1980    7.2820   22.3705  _O2    1             0.000000
     69  _O2       18.5500    5.6340    3.4615  _O2    1             0.000000
     70  _O2        5.6340    7.2820    3.4615  _O2    1             0.000000
     71  _O2        7.2820   20.1980    3.4615  _O2    1             0.000000
     72  _O2       20.1980   18.5500    3.4615  _O2    1             0.000000
     73  _O2       22.3705   18.5500   20.1980  _O2    1             0.000000
     74  _O2       22.3705    5.6340   18.5500  _O2    1             0.000000
     75  _O2       22.3705    7.2820    5.6340  _O2    1             0.000000
     76  _O2       22.3705   20.1980    7.2820  _O2    1             0.000000
     77  _O2        3.4615   18.5500    5.6340  _O2    1             0.000000
     78  _O2        3.4615    5.6340    7.2820  _O2    1             0.000000
     79  _O2        3.4615    7.2820   20.1980  _O2    1             0.000000
     80  _O2        3.4615   20.1980   18.5500  _O2    1             0.000000
     81  _O2        7.2820   22.3705   20.1980  _O2    1             0.000000
     82  _O2       20.1980   22.3705   18.5500  _O2    1             0.000000
     83  _O2       18.5500   22.3705    5.6340  _O2    1             0.000000
     84  _O2        5.6340   22.3705    7.2820  _O2    1             0.000000
     85  _O2        7.2820    3.4615    5.6340  _O2    1             0.000000
     86  _O2       20.1980    3.4615    7.2820  _O2    1             0.000000
     87  _O2       18.5500    3.4615   20.1980  _O2    1             0.000000
     88  _O2        5.6340    3.4615   18.5500  _O2    1             0.000000
     89  _O2        7.2820   18.5500   16.3775  _O2    1             0.000000
     90  _O2       20.1980   20.1980   16.3775  _O2    1             0.000000
     91  _O2       18.5500    7.2820   16.3775  _O2    1             0.000000
     92  _O2        5.6340    5.6340   16.3775  _O2    1             0.000000
     93  _O2        7.2820    7.2820    9.4545  _O2    1             0.000000
     94  _O2       20.1980    5.6340    9.4545  _O2    1             0.000000
     95  _O2       18.5500   18.5500    9.4545  _O2    1             0.000000
     96  _O2        5.6340   20.1980    9.4545  _O2    1             0.000000
     97  _O2       18.5500   16.3775   18.5500  _O2    1             0.000000
     98  _O2        5.6340   16.3775   20.1980  _O2    1             0.000000
     99  _O2        7.2820   16.3775    7.2820  _O2    1             0.000000
    100  _O2       20.1980   16.3775    5.6340  _O2    1             0.000000
    101  _O2       18.5500    9.4545    7.2820  _O2    1             0.000000
    102  _O2        5.6340    9.4545    5.6340  _O2    1             0.000000
    103  _O2        7.2820    9.4545   18.5500  _O2    1             0.000000
    104  _O2       20.1980    9.4545   20.1980  _O2    1             0.000000
    105  _O2       18.5500    7.2820    9.4545  _O2    1             0.000000
    106  _O2        5.6340    5.6340    9.4545  _O2    1             0.000000
    107  _O2        7.2820   18.5500    9.4545  _O2    1             0.000000
    108  _O2       20.1980   20.1980    9.4545  _O2    1             0.000000
    109  _O2       18.5500   18.5500   16.3775  _O2    1             0.000000
    110  _O2        5.6340   20.1980   16.3775  _O2    1             0.000000
    111  _O2        7.2820    7.2820   16.3775  _O2    1             0.000000
    112  _O2       20.1980    5.6340   16.3775  _O2    1             0.000000
    113  _O2        7.2820    9.4545    7.2820  _O2    1             0.000000
    114  _O2       20.1980    9.4545    5.6340  _O2    1             0.000000
    115  _O2       18.5500    9.4545   18.5500  _O2    1             0.000000
    116  _O2        5.6340    9.4545   20.1980  _O2    1             0.000000
    117  _O2        7.2820   16.3775   18.5500  _O2    1             0.000000
    118  _O2       20.1980   16.3775   20.1980  _O2    1             0.000000
    119  _O2       18.5500   16.3775    7.2820  _O2    1             0.000000
    120  _O2        5.6340   16.3775    5.6340  _O2    1             0.000000
    121  _O2       16.3775    7.2820   18.5500  _O2    1             0.000000
    122  _O2       16.3775   20.1980   20.1980  _O2    1             0.000000
    123  _O2       16.3775   18.5500    7.2820  _O2    1             0.000000
    124  _O2       16.3775    5.6340    5.6340  _O2    1             0.000000
    125  _O2        9.4545    7.2820    7.2820  _O2    1             0.000000
    126  _O2        9.4545   20.1980    5.6340  _O2    1             0.000000
    127  _O2        9.4545   18.5500   18.5500  _O2    1             0.000000
    128  _O2        9.4545    5.6340   20.1980  _O2    1             0.000000
    129  _O2        9.4545   18.5500    7.2820  _O2    1             0.000000
    130  _O2        9.4545    5.6340    5.6340  _O2    1             0.000000
    131  _O2        9.4545    7.2820   18.5500  _O2    1             0.000000
    132  _O2        9.4545   20.1980   20.1980  _O2    1             0.000000
    133  _O2       16.3775   18.5500   18.5500  _O2    1             0.000000
    134  _O2       16.3775    5.6340   20.1980  _O2    1             0.000000
    135  _O2       16.3775    7.2820    7.2820  _O2    1             0.000000
    136  _O2       16.3775   20.1980    5.6340  _O2    1             0.000000
    137  _C1        6.4580    6.4580    2.8751  _C1    1             0.000000
    138  _C1       19.3740    6.4580    2.8751  _C1    1             0.000000
    139  _C1       19.3740   19.3740    2.8751  _C1    1             0.000000
    140  _C1        6.4580   19.3740    2.8751  _C1    1             0.000000
    141  _C1        6.4580   19.3740   22.9569  _C1    1             0.000000
    142  _C1       19.3740   19.3740   22.9569  _C1    1             0.000000
    143  _C1       19.3740    6.4580   22.9569  _C1    1             0.000000
    144  _C1        6.4580    6.4580   22.9569  _C1    1             0.000000
    145  _C1        2.8751    6.4580    6.4580  _C1    1             0.000000
    146  _C1        2.8751   19.3740    6.4580  _C1    1             0.000000
    147  _C1        2.8751   19.3740   19.3740  _C1    1             0.000000
    148  _C1        2.8751    6.4580   19.3740  _C1    1             0.000000
    149  _C1       22.9569    6.4580   19.3740  _C1    1             0.000000
    150  _C1       22.9569   19.3740   19.3740  _C1    1             0.000000
    151  _C1       22.9569   19.3740    6.4580  _C1    1             0.000000
    152  _C1       22.9569    6.4580    6.4580  _C1    1             0.000000
    153  _C1       19.3740    2.8751    6.4580  _C1    1             0.000000
    154  _C1        6.4580    2.8751    6.4580  _C1    1             0.000000
    155  _C1        6.4580    2.8751   19.3740  _C1    1             0.000000
    156  _C1       19.3740    2.8751   19.3740  _C1    1             0.000000
    157  _C1       19.3740   22.9569   19.3740  _C1    1             0.000000
    158  _C1        6.4580   22.9569   19.3740  _C1    1             0.000000
    159  _C1        6.4580   22.9569    6.4580  _C1    1             0.000000
    160  _C1       19.3740   22.9569    6.4580  _C1    1             0.000000
    161  _C1        6.4580   19.3740   15.7911  _C1    1             0.000000
    162  _C1       19.3740   19.3740   15.7911  _C1    1             0.000000
    163  _C1       19.3740    6.4580   15.7911  _C1    1             0.000000
    164  _C1        6.4580    6.4580   15.7911  _C1    1             0.000000
    165  _C1        6.4580    6.4580   10.0409  _C1    1             0.000000
    166  _C1       19.3740    6.4580   10.0409  _C1    1             0.000000
    167  _C1       19.3740   19.3740   10.0409  _C1    1             0.000000
    168  _C1        6.4580   19.3740   10.0409  _C1    1             0.000000
    169  _C1       19.3740   15.7911   19.3740  _C1    1             0.000000
    170  _C1        6.4580   15.7911   19.3740  _C1    1             0.000000
    171  _C1        6.4580   15.7911    6.4580  _C1    1             0.000000
    172  _C1       19.3740   15.7911    6.4580  _C1    1             0.000000
    173  _C1       19.3740   10.0409    6.4580  _C1    1             0.000000
    174  _C1        6.4580   10.0409    6.4580  _C1    1             0.000000
    175  _C1        6.4580   10.0409   19.3740  _C1    1             0.000000
    176  _C1       19.3740   10.0409   19.3740  _C1    1             0.000000
    177  _C1       15.7911    6.4580   19.3740  _C1    1             0.000000
    178  _C1       15.7911   19.3740   19.3740  _C1    1             0.000000
    179  _C1       15.7911   19.3740    6.4580  _C1    1             0.000000
    180  _C1       15.7911    6.4580    6.4580  _C1    1             0.000000
    181  _C1       10.0409    6.4580    6.4580  _C1    1             0.000000
    182  _C1       10.0409   19.3740    6.4580  _C1    1             0.000000
    183  _C1       10.0409   19.3740   19.3740  _C1    1             0.000000
    184  _C1       10.0409    6.4580   19.3740  _C1    1             0.000000
    185  _C2        6.4580    6.4580    1.3898  _C2    1             0.000000
    186  _C2       19.3740    6.4580    1.3898  _C2    1             0.000000
    187  _C2       19.3740   19.3740    1.3898  _C2    1             0.000000
    188  _C2        6.4580   19.3740    1.3898  _C2    1             0.000000
    189  _C2        6.4580   19.3740   24.4422  _C2    1             0.000000
    190  _C2       19.3740   19.3740   24.4422  _C2    1             0.000000
    191  _C2       19.3740    6.4580   24.4422  _C2    1             0.000000
    192  _C2        6.4580    6.4580   24.4422  _C2    1             0.000000
    193  _C2        1.3898    6.4580    6.4580  _C2    1             0.000000
    194  _C2        1.3898   19.3740    6.4580  _C2    1             0.000000
    195  _C2        1.3898   19.3740   19.3740  _C2    1             0.000000
    196  _C2        1.3898    6.4580   19.3740  _C2    1             0.000000
    197  _C2       24.4422    6.4580   19.3740  _C2    1             0.000000
    198  _C2       24.4422   19.3740   19.3740  _C2    1             0.000000
    199  _C2       24.4422   19.3740    6.4580  _C2    1             0.000000
    200  _C2       24.4422    6.4580    6.4580  _C2    1             0.000000
    201  _C2       19.3740    1.3898    6.4580  _C2    1             0.000000
    202  _C2        6.4580    1.3898    6.4580  _C2    1             0.000000
    203  _C2        6.4580    1.3898   19.3740  _C2    1             0.000000
    204  _C2       19.3740    1.3898   19.3740  _C2    1             0.000000
    205  _C2       19.3740   24.4422   19.3740  _C2    1             0.000000
    206  _C2        6.4580   24.4422   19.3740  _C2    1             0.000000
    207  _C2        6.4580   24.4422    6.4580  _C2    1             0.000000
    208  _C2       19.3740   24.4422    6.4580  _C2    1             0.000000
    209  _C2        6.4580   19.3740   14.3058  _C2    1             0.000000
    210  _C2       19.3740   19.3740   14.3058  _C2    1             0.000000
    211  _C2       19.3740    6.4580   14.3058  _C2    1             0.000000
    212  _C2        6.4580    6.4580   14.3058  _C2    1             0.000000
    213  _C2        6.4580    6.4580   11.5262  _C2    1             0.000000
    214  _C2       19.3740    6.4580   11.5262  _C2    1             0.000000
    215  _C2       19.3740   19.3740   11.5262  _C2    1             0.000000
    216  _C2        6.4580   19.3740   11.5262  _C2    1             0.000000
    217  _C2       19.3740   14.3058   19.3740  _C2    1             0.000000
    218  _C2        6.4580   14.3058   19.3740  _C2    1             0.000000
    219  _C2        6.4580   14.3058    6.4580  _C2    1             0.000000
    220  _C2       19.3740   14.3058    6.4580  _C2    1             0.000000
    221  _C2       19.3740   11.5262    6.4580  _C2    1             0.000000
    222  _C2        6.4580   11.5262    6.4580  _C2    1             0.000000
    223  _C2        6.4580   11.5262   19.3740  _C2    1             0.000000
    224  _C2       19.3740   11.5262   19.3740  _C2    1             0.000000
    225  _C2       14.3058    6.4580   19.3740  _C2    1             0.000000
    226  _C2       14.3058   19.3740   19.3740  _C2    1             0.000000
    227  _C2       14.3058   19.3740    6.4580  _C2    1             0.000000
    228  _C2       14.3058    6.4580    6.4580  _C2    1             0.000000
    229  _C2       11.5262    6.4580    6.4580  _C2    1             0.000000
    230  _C2       11.5262   19.3740    6.4580  _C2    1             0.000000
    231  _C2       11.5262   19.3740   19.3740  _C2    1             0.000000
    232  _C2       11.5262    6.4580   19.3740  _C2    1             0.000000
    233  _C3        7.3079    5.6081    0.6949  _C3    1             0.000000
    234  _C3       20.2239    7.3079    0.6949  _C3    1             0.000000
    235  _C3       18.5241   20.2239    0.6949  _C3    1             0.000000
    236  _C3        5.6081   18.5241    0.6949  _C3    1             0.000000
    237  _C3        7.3079   20.2239   25.1371  _C3    1             0.000000
    238  _C3       20.2239   18.5241   25.1371  _C3    1             0.000000
    239  _C3       18.5241    5.6081   25.1371  _C3    1             0.000000
    240  _C3        5.6081    7.3079   25.1371  _C3    1             0.000000
    241  _C3        0.6949    7.3079    5.6081  _C3    1             0.000000
    242  _C3        0.6949   20.2239    7.3079  _C3    1             0.000000
    243  _C3        0.6949   18.5241   20.2239  _C3    1             0.000000
    244  _C3        0.6949    5.6081   18.5241  _C3    1             0.000000
    245  _C3       25.1371    7.3079   20.2239  _C3    1             0.000000
    246  _C3       25.1371   20.2239   18.5241  _C3    1             0.000000
    247  _C3       25.1371   18.5241    5.6081  _C3    1             0.000000
    248  _C3       25.1371    5.6081    7.3079  _C3    1             0.000000
    249  _C3       18.5241    0.6949    5.6081  _C3    1             0.000000
    250  _C3        5.6081    0.6949    7.3079  _C3    1             0.000000
    251  _C3        7.3079    0.6949   20.2239  _C3    1             0.000000
    252  _C3       20.2239    0.6949   18.5241  _C3    1             0.000000
    253  _C3       18.5241   25.1371   20.2239  _C3    1             0.000000
    254  _C3        5.6081   25.1371   18.5241  _C3    1             0.000000
    255  _C3        7.3079   25.1371    5.6081  _C3    1             0.000000
    256  _C3       20.2239   25.1371    7.3079  _C3    1             0.000000
    257  _C3       18.5241   20.2239   25.1371  _C3    1             0.000000
    258  _C3        5.6081   18.5241   25.1371  _C3    1             0.000000
    259  _C3        7.3079    5.6081   25.1371  _C3    1             0.000000
    260  _C3       20.2239    7.3079   25.1371  _C3    1             0.000000
    261  _C3       18.5241    5.6081    0.6949  _C3    1             0.000000
    262  _C3        5.6081    7.3079    0.6949  _C3    1             0.000000
    263  _C3        7.3079   20.2239    0.6949  _C3    1             0.000000
    264  _C3       20.2239   18.5241    0.6949  _C3    1             0.000000
    265  _C3       25.1371   18.5241   20.2239  _C3    1             0.000000
    266  _C3       25.1371    5.6081   18.5241  _C3    1             0.000000
    267  _C3       25.1371    7.3079    5.6081  _C3    1             0.000000
    268  _C3       25.1371   20.2239    7.3079  _C3    1             0.000000
    269  _C3        0.6949   18.5241    5.6081  _C3    1             0.000000
    270  _C3        0.6949    5.6081    7.3079  _C3    1             0.000000
    271  _C3        0.6949    7.3079   20.2239  _C3    1             0.000000
    272  _C3        0.6949   20.2239   18.5241  _C3    1             0.000000
    273  _C3        7.3079   25.1371   20.2239  _C3    1             0.000000
    274  _C3       20.2239   25.1371   18.5241  _C3    1             0.000000
    275  _C3       18.5241   25.1371    5.6081  _C3    1             0.000000
    276  _C3        5.6081   25.1371    7.3079  _C3    1             0.000000
    277  _C3        7.3079    0.6949    5.6081  _C3    1             0.000000
    278  _C3       20.2239    0.6949    7.3079  _C3    1             0.000000
    279  _C3       18.5241    0.6949   20.2239  _C3    1             0.000000
    280  _C3        5.6081    0.6949   18.5241  _C3    1             0.000000
    281  _C3        7.3079   18.5241   13.6109  _C3    1             0.000000
    282  _C3       20.2239   20.2239   13.6109  _C3    1             0.000000
    283  _C3       18.5241    7.3079   13.6109  _C3    1             0.000000
    284  _C3        5.6081    5.6081   13.6109  _C3    1             0.000000
    285  _C3        7.3079    7.3079   12.2211  _C3    1             0.000000
    286  _C3       20.2239    5.6081   12.2211  _C3    1             0.000000
    287  _C3       18.5241   18.5241   12.2211  _C3    1             0.000000
    288  _C3        5.6081   20.2239   12.2211  _C3    1             0.000000
    289  _C3       18.5241   13.6109   18.5241  _C3    1             0.000000
    290  _C3        5.6081   13.6109   20.2239  _C3    1             0.000000
    291  _C3        7.3079   13.6109    7.3079  _C3    1             0.000000
    292  _C3       20.2239   13.6109    5.6081  _C3    1             0.000000
    293  _C3       18.5241   12.2211    7.3079  _C3    1             0.000000
    294  _C3        5.6081   12.2211    5.6081  _C3    1             0.000000
    295  _C3        7.3079   12.2211   18.5241  _C3    1             0.000000
    296  _C3       20.2239   12.2211   20.2239  _C3    1             0.000000
    297  _C3       18.5241    7.3079   12.2211  _C3    1             0.000000
    298  _C3        5.6081    5.6081   12.2211  _C3    1             0.000000
    299  _C3        7.3079   18.5241   12.2211  _C3    1             0.000000
    300  _C3       20.2239   20.2239   12.2211  _C3    1             0.000000
    301  _C3       18.5241   18.5241   13.6109  _C3    1             0.000000
    302  _C3        5.6081   20.2239   13.6109  _C3    1             0.000000
    303  _C3        7.3079    7.3079   13.6109  _C3    1             0.000000
    304  _C3       20.2239    5.6081   13.6109  _C3    1             0.000000
    305  _C3        7.3079   12.2211    7.3079  _C3    1             0.000000
    306  _C3       20.2239   12.2211    5.6081  _C3    1             0.000000
    307  _C3       18.5241   12.2211   18.5241  _C3    1             0.000000
    308  _C3        5.6081   12.2211   20.2239  _C3    1             0.000000
    309  _C3        7.3079   13.6109   18.5241  _C3    1             0.000000
    310  _C3       20.2239   13.6109   20.2239  _C3    1             0.000000
    311  _C3       18.5241   13.6109    7.3079  _C3    1             0.000000
    312  _C3        5.6081   13.6109    5.6081  _C3    1             0.000000
    313  _C3       13.6109    7.3079   18.5241  _C3    1             0.000000
    314  _C3       13.6109   20.2239   20.2239  _C3    1             0.000000
    315  _C3       13.6109   18.5241    7.3079  _C3    1             0.000000
    316  _C3       13.6109    5.6081    5.6081  _C3    1             0.000000
    317  _C3       12.2211    7.3079    7.3079  _C3    1             0.000000
    318  _C3       12.2211   20.2239    5.6081  _C3    1             0.000000
    319  _C3       12.2211   18.5241   18.5241  _C3    1             0.000000
    320  _C3       12.2211    5.6081   20.2239  _C3    1             0.000000
    321  _C3       12.2211   18.5241    7.3079  _C3    1             0.000000
    322  _C3       12.2211    5.6081    5.6081  _C3    1             0.000000
    323  _C3       12.2211    7.3079   18.5241  _C3    1             0.000000
    324  _C3       12.2211   20.2239   20.2239  _C3    1             0.000000
    325  _C3       13.6109   18.5241   18.5241  _C3    1             0.000000
    326  _C3       13.6109    5.6081   20.2239  _C3    1             0.000000
    327  _C3       13.6109    7.3079    7.3079  _C3    1             0.000000
    328  _C3       13.6109   20.2239    5.6081  _C3    1             0.000000
    329  _H1        7.8762    5.0398    1.1573  _H1    1             0.000000
    330  _H1       20.7922    7.8762    1.1573  _H1    1             0.000000
    331  _H1       17.9558   20.7922    1.1573  _H1    1             0.000000
    332  _H1        5.0398   17.9558    1.1573  _H1    1             0.000000
    333  _H1        7.8762   20.7922   24.6747  _H1    1             0.000000
    334  _H1       20.7922   17.9558   24.6747  _H1    1             0.000000
    335  _H1       17.9558    5.0398   24.6747  _H1    1             0.000000
    336  _H1        5.0398    7.8762   24.6747  _H1    1             0.000000
    337  _H1        1.1573    7.8762    5.0398  _H1    1             0.000000
    338  _H1        1.1573   20.7922    7.8762  _H1    1             0.000000
    339  _H1        1.1573   17.9558   20.7922  _H1    1             0.000000
    340  _H1        1.1573    5.0398   17.9558  _H1    1             0.000000
    341  _H1       24.6747    7.8762   20.7922  _H1    1             0.000000
    342  _H1       24.6747   20.7922   17.9558  _H1    1             0.000000
    343  _H1       24.6747   17.9558    5.0398  _H1    1             0.000000
    344  _H1       24.6747    5.0398    7.8762  _H1    1             0.000000
    345  _H1       17.9558    1.1573    5.0398  _H1    1             0.000000
    346  _H1        5.0398    1.1573    7.8762  _H1    1             0.000000
    347  _H1        7.8762    1.1573   20.7922  _H1    1             0.000000
    348  _H1       20.7922    1.1573   17.9558  _H1    1             0.000000
    349  _H1       17.9558   24.6747   20.7922  _H1    1             0.000000
    350  _H1        5.0398   24.6747   17.9558  _H1    1             0.000000
    351  _H1        7.8762   24.6747    5.0398  _H1    1             0.000000
    352  _H1       20.7922   24.6747    7.8762  _H1    1             0.000000
    353  _H1       17.9558   20.7922   24.6747  _H1    1             0.000000
    354  _H1        5.0398   17.9558   24.6747  _H1    1             0.000000
    355  _H1        7.8762    5.0398   24.6747  _H1    1             0.000000
    356  _H1       20.7922    7.8762   24.6747  _H1    1             0.000000
    357  _H1       17.9558    5.0398    1.1573  _H1    1             0.000000
    358  _H1        5.0398    7.8762    1.1573  _H1    1             0.000000
    359  _H1        7.8762   20.7922    1.1573  _H1    1             0.000000
    360  _H1       20.7922   17.9558    1.1573  _H1    1             0.000000
    361  _H1       24.6747   17.9558   20.7922  _H1    1             0.000000
    362  _H1       24.6747    5.0398   17.9558  _H1    1             0.000000
    363  _H1       24.6747    7.8762    5.0398  _H1    1             0.000000
    364  _H1       24.6747   20.7922    7.8762  _H1    1             0.000000
    365  _H1        1.1573   17.9558    5.0398  _H1    1             0.000000
    366  _H1        1.1573    5.0398    7.8762  _H1    1             0.000000
    367  _H1        1.1573    7.8762   20.7922  _H1    1             0.000000
    368  _H1        1.1573   20.7922   17.9558  _H1    1             0.000000
    369  _H1        7.8762   24.6747   20.7922  _H1    1             0.000000
    370  _H1       20.7922   24.6747   17.9558  _H1    1             0.000000
    371  _H1       17.9558   24.6747    5.0398  _H1    1             0.000000
    372  _H1        5.0398   24.6747    7.8762  _H1    1             0.000000
    373  _H1        7.8762    1.1573    5.0398  _H1    1             0.000000
    374  _H1       20.7922    1.1573    7.8762  _H1    1             0.000000
    375  _H1       17.9558    1.1573   20.7922  _H1    1             0.000000
    376  _H1        5.0398    1.1573   17.9558  _H1    1             0.000000
    377  _H1        7.8762   17.9558   14.0733  _H1    1             0.000000
    378  _H1       20.7922   20.7922   14.0733  _H1    1             0.000000
    379  _H1       17.9558    7.8762   14.0733  _H1    1             0.000000
    380  _H1        5.0398    5.0398   14.0733  _H1    1             0.000000
    381  _H1        7.8762    7.8762   11.7587  _H1    1             0.000000
    382  _H1       20.7922    5.0398   11.7587  _H1    1             0.000000
    383  _H1       17.9558   17.9558   11.7587  _H1    1             0.000000
    384  _H1        5.0398   20.7922   11.7587  _H1    1             0.000000
    385  _H1       17.9558   14.0733   17.9558  _H1    1             0.000000
    386  _H1        5.0398   14.0733   20.7922  _H1    1             0.000000
    387  _H1        7.8762   14.0733    7.8762  _H1    1             0.000000
    388  _H1       20.7922   14.0733    5.0398  _H1    1             0.000000
    389  _H1       17.9558   11.7587    7.8762  _H1    1             0.000000
    390  _H1        5.0398   11.7587    5.0398  _H1    1             0.000000
    391  _H1        7.8762   11.7587   17.9558  _H1    1             0.000000
    392  _H1       20.7922   11.7587   20.7922  _H1    1             0.000000
    393  _H1       17.9558    7.8762   11.7587  _H1    1             0.000000
    394  _H1        5.0398    5.0398   11.7587  _H1    1             0.000000
    395  _H1        7.8762   17.9558   11.7587  _H1    1             0.000000
    396  _H1       20.7922   20.7922   11.7587  _H1    1             0.000000
    397  _H1       17.9558   17.9558   14.0733  _H1    1             0.000000
    398  _H1        5.0398   20.7922   14.0733  _H1    1             0.000000
    399  _H1        7.8762    7.8762   14.0733  _H1    1             0.000000
    400  _H1       20.7922    5.0398   14.0733  _H1    1             0.000000
    401  _H1        7.8762   11.7587    7.8762  _H1    1             0.000000
    402  _H1       20.7922   11.7587    5.0398  _H1    1             0.000000
    403  _H1       17.9558   11.7587   17.9558  _H1    1             0.000000
    404  _H1        5.0398   11.7587   20.7922  _H1    1             0.000000
    405  _H1        7.8762   14.0733   17.9558  _H1    1             0.000000
    406  _H1       20.7922   14.0733   20.7922  _H1    1             0.000000
    407  _H1       17.9558   14.0733    7.8762  _H1    1             0.000000
    408  _H1        5.0398   14.0733    5.0398  _H1    1             0.000000
    409  _H1       14.0733    7.8762   17.9558  _H1    1             0.000000
    410  _H1       14.0733   20.7922   20.7922  _H1    1             0.000000
    411  _H1       14.0733   17.9558    7.8762  _H1    1             0.000000
    412  _H1       14.0733    5.0398    5.0398  _H1    1             0.000000
    413  _H1       11.7587    7.8762    7.8762  _H1    1             0.000000
    414  _H1       11.7587   20.7922    5.0398  _H1    1             0.000000
    415  _H1       11.7587   17.9558   17.9558  _H1    1             0.000000
    416  _H1       11.7587    5.0398   20.7922  _H1    1             0.000000
    417  _H1       11.7587   17.9558    7.8762  _H1    1             0.000000
    418  _H1       11.7587    5.0398    5.0398  _H1    1             0.000000
    419  _H1       11.7587    7.8762   17.9558  _H1    1             0.000000
    420  _H1       11.7587   20.7922   20.7922  _H1    1             0.000000
    421  _H1       14.0733   17.9558   17.9558  _H1    1             0.000000
    422  _H1       14.0733    5.0398   20.7922  _H1    1             0.000000
    423  _H1       14.0733    7.8762    7.8762  _H1    1             0.000000
    424  _H1       14.0733   20.7922    5.0398  _H1    1             0.000000
    425 _Zn1        7.5791    5.3369   31.1689 _Zn1    1             0.000000
    426 _Zn1       20.4951    7.5791   31.1689 _Zn1    1             0.000000
    427 _Zn1       18.2529   20.4951   31.1689 _Zn1    1             0.000000
    428 _Zn1        5.3369   18.2529   31.1689 _Zn1    1             0.000000
    429 _Zn1        7.5791   20.4951   46.3271 _Zn1    1             0.000000
    430 _Zn1       20.4951   18.2529   46.3271 _Zn1    1             0.000000
    431 _Zn1       18.2529    5.3369   46.3271 _Zn1    1             0.000000
    432 _Zn1        5.3369    7.5791   46.3271 _Zn1    1             0.000000
    433 _Zn1        5.3369    7.5791   31.1689 _Zn1    1             0.000000
    434 _Zn1        5.3369   20.4951   33.4111 _Zn1    1             0.000000
    435 _Zn1        5.3369   18.2529   46.3271 _Zn1    1             0.000000
    436 _Zn1        5.3369    5.3369   44.0849 _Zn1    1             0.000000
    437 _Zn1       20.4951    7.5791   46.3271 _Zn1    1             0.000000
    438 _Zn1       20.4951   20.4951   44.0849 _Zn1    1             0.000000
    439 _Zn1       20.4951   18.2529   31.1689 _Zn1    1             0.000000
    440 _Zn1       20.4951    5.3369   33.4111 _Zn1    1             0.000000
    441 _Zn1       18.2529    5.3369   31.1689 _Zn1    1             0.000000
    442 _Zn1        5.3369    5.3369   33.4111 _Zn1    1             0.000000
    443 _Zn1        7.5791    5.3369   46.3271 _Zn1    1             0.000000
    444 _Zn1       20.4951    5.3369   44.0849 _Zn1    1             0.000000
    445 _Zn1       18.2529   20.4951   46.3271 _Zn1    1             0.000000
    446 _Zn1        5.3369   20.4951   44.0849 _Zn1    1             0.000000
    447 _Zn1        7.5791   20.4951   31.1689 _Zn1    1             0.000000
    448 _Zn1       20.4951   20.4951   33.4111 _Zn1    1             0.000000
    449 _Zn1        7.5791   18.2529   44.0849 _Zn1    1             0.000000
    450 _Zn1       18.2529    7.5791   44.0849 _Zn1    1             0.000000
    451 _Zn1        7.5791    7.5791   33.4111 _Zn1    1             0.000000
    452 _Zn1       18.2529   18.2529   33.4111 _Zn1    1             0.000000
    453 _Zn1       18.2529   18.2529   44.0849 _Zn1    1             0.000000
    454 _Zn1        7.5791   18.2529   33.4111 _Zn1    1             0.000000
    455 _Zn1       18.2529    7.5791   33.4111 _Zn1    1             0.000000
    456 _Zn1        7.5791    7.5791   44.0849 _Zn1    1             0.000000
    457  _O1        6.4580    6.4580   32.2900  _O1    1             0.000000
    458  _O1       19.3740    6.4580   32.2900  _O1    1             0.000000
    459  _O1       19.3740   19.3740   32.2900  _O1    1             0.000000
    460  _O1        6.4580   19.3740   32.2900  _O1    1             0.000000
    461  _O1        6.4580   19.3740   45.2060  _O1    1             0.000000
    462  _O1       19.3740   19.3740   45.2060  _O1    1             0.000000
    463  _O1       19.3740    6.4580   45.2060  _O1    1             0.000000
    464  _O1        6.4580    6.4580   45.2060  _O1    1             0.000000
    465  _O2        7.2820    5.6340   29.2935  _O2    1             0.000000
    466  _O2       20.1980    7.2820   29.2935  _O2    1             0.000000
    467  _O2       18.5500   20.1980   29.2935  _O2    1             0.000000
    468  _O2        5.6340   18.5500   29.2935  _O2    1             0.000000
    469  _O2        7.2820   20.1980   48.2025  _O2    1             0.000000
    470  _O2       20.1980   18.5500   48.2025  _O2    1             0.000000
    471  _O2       18.5500    5.6340   48.2025  _O2    1             0.000000
    472  _O2        5.6340    7.2820   48.2025  _O2    1             0.000000
    473  _O2        3.4615    7.2820   31.4660  _O2    1             0.000000
    474  _O2        3.4615   20.1980   33.1140  _O2    1             0.000000
    475  _O2        3.4615   18.5500   46.0300  _O2    1             0.000000
    476  _O2        3.4615    5.6340   44.3820  _O2    1             0.000000
    477  _O2       22.3705    7.2820   46.0300  _O2    1             0.000000
    478  _O2       22.3705   20.1980   44.3820  _O2    1             0.000000
    479  _O2       22.3705   18.5500   31.4660  _O2    1             0.000000
    480  _O2       22.3705    5.6340   33.1140  _O2    1             0.000000
    481  _O2       18.5500    3.4615   31.4660  _O2    1             0.000000
    482  _O2        5.6340    3.4615   33.1140  _O2    1             0.000000
    483  _O2        7.2820    3.4615   46.0300  _O2    1             0.000000
    484  _O2       20.1980    3.4615   44.3820  _O2    1             0.000000
    485  _O2       18.5500   22.3705   46.0300  _O2    1             0.000000
    486  _O2        5.6340   22.3705   44.3820  _O2    1             0.000000
    487  _O2        7.2820   22.3705   31.4660  _O2    1             0.000000
    488  _O2       20.1980   22.3705   33.1140  _O2    1             0.000000
    489  _O2       18.5500   20.1980   48.2025  _O2    1             0.000000
    490  _O2        5.6340   18.5500   48.2025  _O2    1             0.000000
    491  _O2        7.2820    5.6340   48.2025  _O2    1             0.000000
    492  _O2       20.1980    7.2820   48.2025  _O2    1             0.000000
    493  _O2       18.5500    5.6340   29.2935  _O2    1             0.000000
    494  _O2        5.6340    7.2820   29.2935  _O2    1             0.000000
    495  _O2        7.2820   20.1980   29.2935  _O2    1             0.000000
    496  _O2       20.1980   18.5500   29.2935  _O2    1             0.000000
    497  _O2       22.3705   18.5500   46.0300  _O2    1             0.000000
    498  _O2       22.3705    5.6340   44.3820  _O2    1             0.000000
    499  _O2       22.3705    7.2820   31.4660  _O2    1             0.000000
    500  _O2       22.3705   20.1980   33.1140  _O2    1             0.000000
    501  _O2        3.4615   18.5500   31.4660  _O2    1             0.000000
    502  _O2        3.4615    5.6340   33.1140  _O2    1             0.000000
    503  _O2        3.4615    7.2820   46.0300  _O2    1             0.000000
    504  _O2        3.4615   20.1980   44.3820  _O2    1             0.000000
    505  _O2        7.2820   22.3705   46.0300  _O2    1             0.000000
    506  _O2       20.1980   22.3705   44.3820  _O2    1             0.000000
    507  _O2       18.5500   22.3705   31.4660  _O2    1             0.000000
    508  _O2        5.6340   22.3705   33.1140  _O2    1             0.000000
    509  _O2        7.2820    3.4615   31.4660  _O2    1             0.000000
    510  _O2       20.1980    3.4615   33.1140  _O2    1             0.000000
    511  _O2       18.5500    3.4615   46.0300  _O2    1             0.000000
    512  _O2        5.6340    3.4615   44.3820  _O2    1             0.000000
    513  _O2        7.2820   18.5500   42.2095  _O2    1             0.000000
    514  _O2       20.1980   20.1980   42.2095  _O2    1             0.000000
    515  _O2       18.5500    7.2820   42.2095  _O2    1             0.000000
    516  _O2        5.6340    5.6340   42.2095  _O2    1             0.000000
    517  _O2        7.2820    7.2820   35.2865  _O2    1             0.000000
    518  _O2       20.1980    5.6340   35.2865  _O2    1             0.000000
    519  _O2       18.5500   18.5500   35.2865  _O2    1             0.000000
    520  _O2        5.6340   20.1980   35.2865  _O2    1             0.000000
    521  _O2       18.5500   16.3775   44.3820  _O2    1             0.000000
    522  _O2        5.6340   16.3775   46.0300  _O2    1             0.000000
    523  _O2        7.2820   16.3775   33.1140  _O2    1             0.000000
    524  _O2       20.1980   16.3775   31.4660  _O2    1             0.000000
    525  _O2       18.5500    9.4545   33.1140  _O2    1             0.000000
    526  _O2        5.6340    9.4545   31.4660  _O2    1             0.000000
    527  _O2        7.2820    9.4545   44.3820  _O2    1             0.000000
    528  _O2       20.1980    9.4545   46.0300  _O2    1             0.000000
    529  _O2       18.5500    7.2820   35.2865  _O2    1             0.000000
    530  _O2        5.6340    5.6340   35.2865  _O2    1             0.000000
    531  _O2        7.2820   18.5500   35.2865  _O2    1             0.000000
    532  _O2       20.1980   20.1980   35.2865  _O2    1             0.000000
    533  _O2       18.5500   18.5500   42.2095  _O2    1             0.000000
    534  _O2        5.6340   20.1980   42.2095  _O2    1             0.000000
    535  _O2        7.2820    7.2820   42.2095  _O2    1             0.000000
    536  _O2       20.1980    5.6340   42.2095  _O2    1             0.000000
    537  _O2        7.2820    9.4545   33.1140  _O2    1             0.000000
    538  _O2       20.1980    9.4545   31.4660  _O2    1             0.000000
    539  _O2       18.5500    9.4545   44.3820  _O2    1             0.000000
    540  _O2        5.6340    9.4545   46.0300  _O2    1             0.000000
    541  _O2        7.2820   16.3775   44.3820  _O2    1             0.000000
    542  _O2       20.1980   16.3775   46.0300  _O2    1             0.000000
    543  _O2       18.5500   16.3775   33.1140  _O2    1             0.000000
    544  _O2        5.6340   16.3775   31.4660  _O2    1             0.000000
    545  _O2       16.3775    7.2820   44.3820  _O2    1             0.000000
    546  _O2       16.3775   20.1980   46.0300  _O2    1             0.000000
    547  _O2       16.3775   18.5500   33.1140  _O2    1             0.000000
    548  _O2       16.3775    5.6340   31.4660  _O2    1             0.000000
    549  _O2        9.4545    7.2820   33.1140  _O2    1             0.000000
    550  _O2        9.4545   20.1980   31.4660  _O2    1             0.000000
    551  _O2        9.4545   18.5500   44.3820  _O2    1             0.000000
    552  _O2        9.4545    5.6340   46.0300  _O2    1             0.000000
    553  _O2        9.4545   18.5500   33.1140  _O2    1             0.000000
    554  _O2        9.4545    5.6340   31.4660  _O2    1             0.000000
    555  _O2        9.4545    7.2820   44.3820  _O2    1             0.000000
    556  _O2        9.4545   20.1980   46.0300  _O2    1             0.000000
    557  _O2       16.3775   18.5500   44.3820  _O2    1             0.000000
    558  _O2       16.3775    5.6340   46.0300  _O2    1             0.000000
    559  _O2       16.3775    7.2820   33.1140  _O2    1             0.000000
    560  _O2       16.3775   20.1980   31.4660  _O2    1             0.000000
    561  _C1        6.4580    6.4580   28.7071  _C1    1             0.000000
    562  _C1       19.3740    6.4580   28.7071  _C1    1             0.000000
    563  _C1       19.3740   19.3740   28.7071  _C1    1             0.000000
    564  _C1        6.4580   19.3740   28.7071  _C1    1             0.000000
    565  _C1        6.4580   19.3740   48.7889  _C1    1             0.000000
    566  _C1       19.3740   19.3740   48.7889  _C1    1             0.000000
    567  _C1       19.3740    6.4580   48.7889  _C1    1             0.000000
    568  _C1        6.4580    6.4580   48.7889  _C1    1             0.000000
    569  _C1        2.8751    6.4580   32.2900  _C1    1             0.000000
    570  _C1        2.8751   19.3740   32.2900  _C1    1             0.000000
    571  _C1        2.8751   19.3740   45.2060  _C1    1             0.000000
    572  _C1        2.8751    6.4580   45.2060  _C1    1             0.000000
    573  _C1       22.9569    6.4580   45.2060  _C1    1             0.000000
    574  _C1       22.9569   19.3740   45.2060  _C1    1             0.000000
    575  _C1       22.9569   19.3740   32.2900  _C1    1             0.000000
    576  _C1       22.9569    6.4580   32.2900  _C1    1             0.000000
    577  _C1       19.3740    2.8751   32.2900  _C1    1             0.000000
    578  _C1        6.4580    2.8751   32.2900  _C1    1             0.000000
    579  _C1        6.4580    2.8751   45.2060  _C1    1             0.000000
    580  _C1       19.3740    2.8751   45.2060  _C1    1             0.000000
    581  _C1       19.3740   22.9569   45.2060  _C1    1             0.000000
    582  _C1        6.4580   22.9569   45.2060  _C1    1             0.000000
    583  _C1        6.4580   22.9569   32.2900  _C1    1             0.000000
    584  _C1       19.3740   22.9569   32.2900  _C1    1             0.000000
    585  _C1        6.4580   19.3740   41.6231  _C1    1             0.000000
    586  _C1       19.3740   19.3740   41.6231  _C1    1             0.000000
    587  _C1       19.3740    6.4580   41.6231  _C1    1             0.000000
    588  _C1        6.4580    6.4580   41.6231  _C1    1             0.000000
    589  _C1        6.4580    6.4580   35.8729  _C1    1             0.000000
    590  _C1       19.3740    6.4580   35.8729  _C1    1             0.000000
    591  _C1       19.3740   19.3740   35.8729  _C1    1             0.000000
    592  _C1        6.4580   19.3740   35.8729  _C1    1             0.000000
    593  _C1       19.3740   15.7911   45.2060  _C1    1             0.000000
    594  _C1        6.4580   15.7911   45.2060  _C1    1             0.000000
    595  _C1        6.4580   15.7911   32.2900  _C1    1             0.000000
    596  _C1       19.3740   15.7911   32.2900  _C1    1             0.000000
    597  _C1       19.3740   10.0409   32.2900  _C1    1             0.000000
    598  _C1        6.4580   10.0409   32.2900  _C1    1             0.000000
    599  _C1        6.4580   10.0409   45.2060  _C1    1             0.000000
    600  _C1       19.3740   10.0409   45.2060  _C1    1             0.000000
    601  _C1       15.7911    6.4580   45.2060  _C1    1             0.000000
    602  _C1       15.7911   19.3740   45.2060  _C1    1             0.000000
    603  _C1       15.7911   19.3740   32.2900  _C1    1             0.000000
    604  _C1       15.7911    6.4580   32.2900  _C1    1             0.000000
    605  _C1       10.0409    6.4580   32.2900  _C1    1             0.000000
    606  _C1       10.0409   19.3740   32.2900  _C1    1             0.000000
    607  _C1       10.0409   19.3740   45.2060  _C1    1             0.000000
    608  _C1       10.0409    6.4580   45.2060  _C1    1             0.000000
    609  _C2        6.4580    6.4580   27.2218  _C2    1             0.000000
    610  _C2       19.3740    6.4580   27.2218  _C2    1             0.000000
    611  _C2       19.3740   19.3740   27.2218  _C2    1             0.000000
    612  _C2        6.4580   19.3740   27.2218  _C2    1             0.000000
    613  _C2        6.4580   19.3740   50.2742  _C2    1             0.000000
    614  _C2       19.3740   19.3740   50.2742  _C2    1             0.000000
    615  _C2       19.3740    6.4580   50.2742  _C2    1             0.000000
    616  _C2        6.4580    6.4580   50.2742  _C2    1             0.000000
    617  _C2        1.3898    6.4580   32.2900  _C2    1             0.000000
    618  _C2        1.3898   19.3740   32.2900  _C2    1             0.000000
    619  _C2        1.3898   19.3740   45.2060  _C2    1             0.000000
    620  _C2        1.3898    6.4580   45.2060  _C2    1             0.000000
    621  _C2       24.4422    6.4580   45.2060  _C2    1             0.000000
    622  _C2       24.4422   19.3740   45.2060  _C2    1             0.000000
    623  _C2       24.4422   19.3740   32.2900  _C2    1             0.000000
    624  _C2       24.4422    6.4580   32.2900  _C2    1             0.000000
    625  _C2       19.3740    1.3898   32.2900  _C2    1             0.000000
    626  _C2        6.4580    1.3898   32.2900  _C2    1             0.000000
    627  _C2        6.4580    1.3898   45.2060  _C2    1             0.000000
    628  _C2       19.3740    1.3898   45.2060  _C2    1             0.000000
    629  _C2       19.3740   24.4422   45.2060  _C2    1             0.000000
    630  _C2        6.4580   24.4422   45.2060  _C2    1             0.000000
    631  _C2        6.4580   24.4422   32.2900  _C2    1             0.000000
    632  _C2       19.3740   24.4422   32.2900  _C2    1             0.000000
    633  _C2        6.4580   19.3740   40.1378  _C2    1             0.000000
    634  _C2       19.3740   19.3740   40.1378  _C2    1             0.000000
    635  _C2       19.3740    6.4580   40.1378  _C2    1             0.000000
    636  _C2        6.4580    6.4580   40.1378  _C2    1             0.000000
    637  _C2        6.4580    6.4580   37.3582  _C2    1             0.000000
    638  _C2       19.3740    6.4580   37.3582  _C2    1             0.000000
    639  _C2       19.3740   19.3740   37.3582  _C2    1             0.000000
    640  _C2        6.4580   19.3740   37.3582  _C2    1             0.000000
    641  _C2       19.3740   14.3058   45.2060  _C2    1             0.000000
    642  _C2        6.4580   14.3058   45.2060  _C2    1             0.000000
    643  _C2        6.4580   14.3058   32.2900  _C2    1             0.000000
    644  _C2       19.3740   14.3058   32.2900  _C2    1             0.000000
    645  _C2       19.3740   11.5262   32.2900  _C2    1             0.000000
    646  _C2        6.4580   11.5262   32.2900  _C2    1             0.000000
    647  _C2        6.4580   11.5262   45.2060  _C2    1             0.000000
    648  _C2       19.3740   11.5262   45.2060  _C2    1             0.000000
    649  _C2       14.3058    6.4580   45.2060  _C2    1             0.000000
    650  _C2       14.3058   19.3740   45.2060  _C2    1             0.000000
    651  _C2       14.3058   19.3740   32.2900  _C2    1             0.000000
    652  _C2       14.3058    6.4580   32.2900  _C2    1             0.000000
    653  _C2       11.5262    6.4580   32.2900  _C2    1             0.000000
    654  _C2       11.5262   19.3740   32.2900  _C2    1             0.000000
    655  _C2       11.5262   19.3740   45.2060  _C2    1             0.000000
    656  _C2       11.5262    6.4580   45.2060  _C2    1             0.000000
    657  _C3        7.3079    5.6081   26.5269  _C3    1             0.000000
    658  _C3       20.2239    7.3079   26.5269  _C3    1             0.000000
    659  _C3       18.5241   20.2239   26.5269  _C3    1             0.000000
    660  _C3        5.6081   18.5241   26.5269  _C3    1             0.000000
    661  _C3        7.3079   20.2239   50.9691  _C3    1             0.000000
    662  _C3       20.2239   18.5241   50.9691  _C3    1             0.000000
    663  _C3       18.5241    5.6081   50.9691  _C3    1             0.000000
    664  _C3        5.6081    7.3079   50.9691  _C3    1             0.000000
    665  _C3        0.6949    7.3079   31.4401  _C3    1             0.000000
    666  _C3        0.6949   20.2239   33.1399  _C3    1             0.000000
    667  _C3        0.6949   18.5241   46.0559  _C3    1             0.000000
    668  _C3        0.6949    5.6081   44.3561  _C3    1             0.000000
    669  _C3       25.1371    7.3079   46.0559  _C3    1             0.000000
    670  _C3       25.1371   20.2239   44.3561  _C3    1             0.000000
    671  _C3       25.1371   18.5241   31.4401  _C3    1             0.000000
    672  _C3       25.1371    5.6081   33.1399  _C3    1             0.000000
    673  _C3       18.5241    0.6949   31.4401  _C3    1             0.000000
    674  _C3        5.6081    0.6949   33.1399  _C3    1             0.000000
    675  _C3        7.3079    0.6949   46.0559  _C3    1             0.000000
    676  _C3       20.2239    0.6949   44.3561  _C3    1             0.000000
    677  _C3       18.5241   25.1371   46.0559  _C3    1             0.000000
    678  _C3        5.6081   25.1371   44.3561  _C3    1             0.000000
    679  _C3        7.3079   25.1371   31.4401  _C3    1             0.000000
    680  _C3       20.2239   25.1371   33.1399  _C3    1             0.000000
    681  _C3       18.5241   20.2239   50.9691  _C3    1             0.000000
    682  _C3        5.6081   18.5241   50.9691  _C3    1             0.000000
    683  _C3        7.3079    5.6081   50.9691  _C3    1             0.000000
    684  _C3       20.2239    7.3079   50.9691  _C3    1             0.000000
    685  _C3       18.5241    5.6081   26.5269  _C3    1             0.000000
    686  _C3        5.6081    7.3079   26.5269  _C3    1             0.000000
    687  _C3        7.3079   20.2239   26.5269  _C3    1             0.000000
    688  _C3       20.2239   18.5241   26.5269  _C3    1             0.000000
    689  _C3       25.1371   18.5241   46.0559  _C3    1             0.000000
    690  _C3       25.1371    5.6081   44.3561  _C3    1             0.000000
    691  _C3       25.1371    7.3079   31.4401  _C3    1             0.000000
    692  _C3       25.1371   20.2239   33.1399  _C3    1             0.000000
    693  _C3        0.6949   18.5241   31.4401  _C3    1             0.000000
    694  _C3        0.6949    5.6081   33.1399  _C3    1             0.000000
    695  _C3        0.6949    7.3079   46.0559  _C3    1             0.000000
    696  _C3        0.6949   20.2239   44.3561  _C3    1             0.000000
    697  _C3        7.3079   25.1371   46.0559  _C3    1             0.000000
    698  _C3       20.2239   25.1371   44.3561  _C3    1             0.000000
    699  _C3       18.5241   25.1371   31.4401  _C3    1             0.000000
    700  _C3        5.6081   25.1371   33.1399  _C3    1             0.000000
    701  _C3        7.3079    0.6949   31.4401  _C3    1             0.000000
    702  _C3       20.2239    0.6949   33.1399  _C3    1             0.000000
    703  _C3       18.5241    0.6949   46.0559  _C3    1             0.000000
    704  _C3        5.6081    0.6949   44.3561  _C3    1             0.000000
    705  _C3        7.3079   18.5241   39.4429  _C3    1             0.000000
    706  _C3       20.2239   20.2239   39.4429  _C3    1             0.000000
    707  _C3       18.5241    7.3079   39.4429  _C3    1             0.000000
    708  _C3        5.6081    5.6081   39.4429  _C3    1             0.000000
    709  _C3        7.3079    7.3079   38.0531  _C3    1             0.000000
    710  _C3       20.2239    5.6081   38.0531  _C3    1             0.000000
    711  _C3       18.5241   18.5241   38.0531  _C3    1             0.000000
    712  _C3        5.6081   20.2239   38.0531  _C3    1             0.000000
    713  _C3       18.5241   13.6109   44.3561  _C3    1             0.000000
    714  _C3        5.6081   13.6109   46.0559  _C3    1             0.000000
    715  _C3        7.3079   13.6109   33.1399  _C3    1             0.000000
    716  _C3       20.2239   13.6109   31.4401  _C3    1             0.000000
    717  _C3       18.5241   12.2211   33.1399  _C3    1             0.000000
    718  _C3        5.6081   12.2211   31.4401  _C3    1             0.000000
    719  _C3        7.3079   12.2211   44.3561  _C3    1             0.000000
    720  _C3       20.2239   12.2211   46.0559  _C3    1             0.000000
    721  _C3       18.5241    7.3079   38.0531  _C3    1             0.000000
    722  _C3        5.6081    5.6081   38.0531  _C3    1             0.000000
    723  _C3        7.3079   18.5241   38.0531  _C3    1             0.000000
    724  _C3       20.2239   20.2239   38.0531  _C3    1             0.000000
    725  _C3       18.5241   18.5241   39.4429  _C3    1             0.000000
    726  _C3        5.6081   20.2239   39.4429  _C3    1             0.000000
    727  _C3        7.3079    7.3079   39.4429  _C3    1             0.000000
    728  _C3       20.2239    5.6081   39.4429  _C3    1             0.000000
    729  _C3        7.3079   12.2211   33.1399  _C3    1             0.000000
    730  _C3       20.2239   12.2211   31.4401  _C3    1             0.000000
    731  _C3       18.5241   12.2211   44.3561  _C3    1             0.000000
    732  _C3        5.6081   12.2211   46.0559  _C3    1             0.000000
    733  _C3        7.3079   13.6109   44.3561  _C3    1             0.000000
    734  _C3       20.2239   13.6109   46.0559  _C3    1             0.000000
    735  _C3       18.5241   13.6109   33.1399  _C3    1             0.000000
    736  _C3        5.6081   13.6109   31.4401  _C3    1             0.000000
    737  _C3       13.6109    7.3079   44.3561  _C3    1             0.000000
    738  _C3       13.6109   20.2239   46.0559  _C3    1             0.000000
    739  _C3       13.6109   18.5241   33.1399  _C3    1             0.000000
    740  _C3       13.6109    5.6081   31.4401  _C3    1             0.000000
    741  _C3       12.2211    7.3079   33.1399  _C3    1             0.000000
    742  _C3       12.2211   20.2239   31.4401  _C3    1             0.000000
    743  _C3       12.2211   18.5241   44.3561  _C3    1             0.000000
    744  _C3       12.2211    5.6081   46.0559  _C3    1             0.000000
    745  _C3       12.2211   18.5241   33.1399  _C3    1             0.000000
    746  _C3       12.2211    5.6081   31.4401  _C3    1             0.000000
    747  _C3       12.2211    7.3079   44.3561  _C3    1             0.000000
    748  _C3       12.2211   20.2239   46.0559  _C3    1             0.000000
    749  _C3       13.6109   18.5241   44.3561  _C3    1             0.000000
    750  _C3       13.6109    5.6081   46.0559  _C3    1             0.000000
    751  _C3       13.6109    7.3079   33.1399  _C3    1             0.000000
    752  _C3       13.6109   20.2239   31.4401  _C3    1             0.000000
    753  _H1        7.8762    5.0398   26.9893  _H1    1             0.000000
    754  _H1       20.7922    7.8762   26.9893  _H1    1             0.000000
    755  _H1       17.9558   20.7922   26.9893  _H1    1             0.000000
    756  _H1        5.0398   17.9558   26.9893  _H1    1             0.000000
    757  _H1        7.8762   20.7922   50.5067  _H1    1             0.000000
    758  _H1       20.7922   17.9558   50.5067  _H1    1             0.000000
    759  _H1       17.9558    5.0398   50.5067  _H1    1             0.000000
    760  _H1        5.0398    7.8762   50.5067  _H1    1             0.000000
    761  _H1        1.1573    7.8762   30.8718  _H1    1             0.000000
    762  _H1        1.1573   20.7922   33.7082  _H1    1             0.000000
    763  _H1        1.1573   17.9558   46.6242  _H1    1             0.000000
    764  _H1        1.1573    5.0398   43.7878  _H1    1             0.000000
    765  _H1       24.6747    7.8762   46.6242  _H1    1             0.000000
    766  _H1       24.6747   20.7922   43.7878  _H1    1             0.000000
    767  _H1       24.6747   17.9558   30.8718  _H1    1             0.000000
    768  _H1       24.6747    5.0398   33.7082  _H1    1             0.000000
    769  _H1       17.9558    1.1573   30.8718  _H1    1             0.000000
    770  _H1        5.0398    1.1573   33.7082  _H1    1             0.000000
    771  _H1        7.8762    1.1573   46.6242  _H1    1             0.000000
    772  _H1       20.7922    1.1573   43.7878  _H1    1             0.000000
    773  _H1       17.9558   24.6747   46.6242  _H1    1             0.000000
    774  _H1        5.0398   24.6747   43.7878  _H1    1             0.000000
    775  _H1        7.8762   24.6747   30.8718  _H1    1             0.000000
    776  _H1       20.7922   24.6747   33.7082  _H1    1             0.000000
    777  _H1       17.9558   20.7922   50.5067  _H1    1             0.000000
    778  _H1        5.0398   17.9558   50.5067  _H1    1             0.000000
    779  _H1        7.8762    5.0398   50.5067  _H1    1             0.000000
    780  _H1       20.7922    7.8762   50.5067  _H1    1             0.000000
    781  _H1       17.9558    5.0398   26.9893  _H1    1             0.000000
    782  _H1        5.0398    7.8762   26.9893  _H1    1             0.000000
    783  _H1        7.8762   20.7922   26.9893  _H1    1             0.000000
    784  _H1       20.7922   17.9558   26.9893  _H1    1             0.000000
    785  _H1       24.6747   17.9558   46.6242  _H1    1             0.000000
    786  _H1       24.6747    5.0398   43.7878  _H1    1             0.000000
    787  _H1       24.6747    7.8762   30.8718  _H1    1             0.000000
    788  _H1       24.6747   20.7922   33.7082  _H1    1             0.000000
    789  _H1        1.1573   17.9558   30.8718  _H1    1             0.000000
    790  _H1        1.1573    5.0398   33.7082  _H1    1             0.000000
    791  _H1        1.1573    7.8762   46.6242  _H1    1             0.000000
    792  _H1        1.1573   20.7922   43.7878  _H1    1             0.000000
    793  _H1        7.8762   24.6747   46.6242  _H1    1             0.000000
    794  _H1       20.7922   24.6747   43.7878  _H1    1             0.000000
    795  _H1       17.9558   24.6747   30.8718  _H1    1             0.000000
    796  _H1        5.0398   24.6747   33.7082  _H1    1             0.000000
    797  _H1        7.8762    1.1573   30.8718  _H1    1             0.000000
    798  _H1       20.7922    1.1573   33.7082  _H1    1             0.000000
    799  _H1       17.9558    1.1573   46.6242  _H1    1             0.000000
    800  _H1        5.0398    1.1573   43.7878  _H1    1             0.000000
    801  _H1        7.8762   17.9558   39.9053  _H1    1             0.000000
    802  _H1       20.7922   20.7922   39.9053  _H1    1             0.000000
    803  _H1       17.9558    7.8762   39.9053  _H1    1             0.000000
    804  _H1        5.0398    5.0398   39.9053  _H1    1             0.000000
    805  _H1        7.8762    7.8762   37.5907  _H1    1             0.000000
    806  _H1       20.7922    5.0398   37.5907  _H1    1             0.000000
    807  _H1       17.9558   17.9558   37.5907  _H1    1             0.000000
    808  _H1        5.0398   20.7922   37.5907  _H1    1             0.000000
    809  _H1       17.9558   14.0733   43.7878  _H1    1             0.000000
    810  _H1        5.0398   14.0733   46.6242  _H1    1             0.000000
    811  _H1        7.8762   14.0733   33.7082  _H1    1             0.000000
    812  _H1       20.7922   14.0733   30.8718  _H1    1             0.000000
    813  _H1       17.9558   11.7587   33.7082  _H1    1             0.000000
    814  _H1        5.0398   11.7587   30.8718  _H1    1             0.000000
    815  _H1        7.8762   11.7587   43.7878  _H1    1             0.000000
    816  _H1       20.7922   11.7587   46.6242  _H1    1             0.000000
    817  _H1       17.9558    7.8762   37.5907  _H1    1             0.000000
    818  _H1        5.0398    5.0398   37.5907  _H1    1             0.000000
    819  _H1        7.8762   17.9558   37.5907  _H1    1             0.000000
    820  _H1       20.7922   20.7922   37.5907  _H1    1             0.000000
    821  _H1       17.9558   17.9558   39.9053  _H1    1             0.000000
    822  _H1        5.0398   20.7922   39.9053  _H1    1             0.000000
    823  _H1        7.8762    7.8762   39.9053  _H1    1             0.000000
    824  _H1       20.7922    5.0398   39.9053  _H1    1             0.000000
    825  _H1        7.8762   11.7587   33.7082  _H1    1             0.000000
    826  _H1       20.7922   11.7587   30.8718  _H1    1             0.000000
    827  _H1       17.9558   11.7587   43.7878  _H1    1             0.000000
    828  _H1        5.0398   11.7587   46.6242  _H1    1             0.000000
    829  _H1        7.8762   14.0733   43.7878  _H1    1             0.000000
    830  _H1       20.7922   14.0733   46.6242  _H1    1             0.000000
    831  _H1       17.9558   14.0733   33.7082  _H1    1             0.000000
    832  _H1        5.0398   14.0733   30.8718  _H1    1             0.000000
    833  _H1       14.0733    7.8762   43.7878  _H1    1             0.000000
    834  _H1       14.0733   20.7922   46.6242  _H1    1             0.000000
    835  _H1       14.0733   17.9558   33.7082  _H1    1             0.000000
    836  _H1       14.0733    5.0398   30.8718  _H1    1             0.000000
    837  _H1       11.7587    7.8762   33.7082  _H1    1             0.000000
    838  _H1       11.7587   20.7922   30.8718  _H1    1             0.000000
    839  _H1       11.7587   17.9558   43.7878  _H1    1             0.000000
    840  _H1       11.7587    5.0398   46.6242  _H1    1             0.000000
    841  _H1       11.7587   17.9558   33.7082  _H1    1             0.000000
    842  _H1       11.7587    5.0398   30.8718  _H1    1             0.000000
    843  _H1       11.7587    7.8762   43.7878  _H1    1             0.000000
    844  _H1       11.7587   20.7922   46.6242  _H1    1             0.000000
    845  _H1       14.0733   17.9558   43.7878  _H1    1             0.000000
    846  _H1       14.0733    5.0398   46.6242  _H1    1             0.000000
    847  _H1       14.0733    7.8762   33.7082  _H1    1             0.000000
    848  _H1       14.0733   20.7922   30.8718  _H1    1             0.000000
    849 _Zn1        7.5791   31.1689    5.3369 _Zn1    1             0.000000
    850 _Zn1       20.4951   33.4111    5.3369 _Zn1    1             0.000000
    851 _Zn1       18.2529   46.3271    5.3369 _Zn1    1             0.000000
    852 _Zn1        5.3369   44.0849    5.3369 _Zn1    1             0.000000
    853 _Zn1        7.5791   46.3271   20.4951 _Zn1    1             0.000000
    854 _Zn1       20.4951   44.0849   20.4951 _Zn1    1             0.000000
    855 _Zn1       18.2529   31.1689   20.4951 _Zn1    1             0.000000
    856 _Zn1        5.3369   33.4111   20.4951 _Zn1    1             0.000000
    857 _Zn1        5.3369   33.4111    5.3369 _Zn1    1             0.000000
    858 _Zn1        5.3369   46.3271    7.5791 _Zn1    1             0.000000
    859 _Zn1        5.3369   44.0849   20.4951 _Zn1    1             0.000000
    860 _Zn1        5.3369   31.1689   18.2529 _Zn1    1             0.000000
    861 _Zn1       20.4951   33.4111   20.4951 _Zn1    1             0.000000
    862 _Zn1       20.4951   46.3271   18.2529 _Zn1    1             0.000000
    863 _Zn1       20.4951   44.0849    5.3369 _Zn1    1             0.000000
    864 _Zn1       20.4951   31.1689    7.5791 _Zn1    1             0.000000
    865 _Zn1       18.2529   31.1689    5.3369 _Zn1    1             0.000000
    866 _Zn1        5.3369   31.1689    7.5791 _Zn1    1             0.000000
    867 _Zn1        7.5791   31.1689   20.4951 _Zn1    1             0.000000
    868 _Zn1       20.4951   31.1689   18.2529 _Zn1    1             0.000000
    869 _Zn1       18.2529   46.3271   20.4951 _Zn1    1             0.000000
    870 _Zn1        5.3369   46.3271   18.2529 _Zn1    1             0.000000
    871 _Zn1        7.5791   46.3271    5.3369 _Zn1    1             0.000000
    872 _Zn1       20.4951   46.3271    7.5791 _Zn1    1             0.000000
    873 _Zn1        7.5791   44.0849   18.2529 _Zn1    1             0.000000
    874 _Zn1       18.2529   33.4111   18.2529 _Zn1    1             0.000000
    875 _Zn1        7.5791   33.4111    7.5791 _Zn1    1             0.000000
    876 _Zn1       18.2529   44.0849    7.5791 _Zn1    1             0.000000
    877 _Zn1       18.2529   44.0849   18.2529 _Zn1    1             0.000000
    878 _Zn1        7.5791   44.0849    7.5791 _Zn1    1             0.000000
    879 _Zn1       18.2529   33.4111    7.5791 _Zn1    1             0.000000
    880 _Zn1        7.5791   33.4111   18.2529 _Zn1    1             0.000000
    881  _O1        6.4580   32.2900    6.4580  _O1    1             0.000000
    882  _O1       19.3740   32.2900    6.4580  _O1    1             0.000000
    883  _O1       19.3740   45.2060    6.4580  _O1    1             0.000000
    884  _O1        6.4580   45.2060    6.4580  _O1    1             0.000000
    885  _O1        6.4580   45.2060   19.3740  _O1    1             0.000000
    886  _O1       19.3740   45.2060   19.3740  _O1    1             0.000000
    887  _O1       19.3740   32.2900   19.3740  _O1    1             0.000000
    888  _O1        6.4580   32.2900   19.3740  _O1    1             0.000000
    889  _O2        7.2820   31.4660    3.4615  _O2    1             0.000000
    890  _O2       20.1980   33.1140    3.4615  _O2    1             0.000000
    891  _O2       18.5500   46.0300    3.4615  _O2    1             0.000000
    892  _O2        5.6340   44.3820    3.4615  _O2    1             0.000000
    893  _O2        7.2820   46.0300   22.3705  _O2    1             0.000000
    894  _O2       20.1980   44.3820   22.3705  _O2    1             0.000000
    895  _O2       18.5500   31.4660   22.3705  _O2    1             0.000000
    896  _O2        5.6340   33.1140   22.3705  _O2    1             0.000000
    897  _O2        3.4615   33.1140    5.6340  _O2    1             0.000000
    898  _O2        3.4615   46.0300    7.2820  _O2    1             0.000000
    899  _O2        3.4615   44.3820   20.1980  _O2    1             0.000000
    900  _O2        3.4615   31.4660   18.5500  _O2    1             0.000000
    901  _O2       22.3705   33.1140   20.1980  _O2    1             0.000000
    902  _O2       22.3705   46.0300   18.5500  _O2    1             0.000000
    903  _O2       22.3705   44.3820    5.6340  _O2    1             0.000000
    904  _O2       22.3705   31.4660    7.2820  _O2    1             0.000000
    905  _O2       18.5500   29.2935    5.6340  _O2    1             0.000000
    906  _O2        5.6340   29.2935    7.2820  _O2    1             0.000000
    907  _O2        7.2820   29.2935   20.1980  _O2    1             0.000000
    908  _O2       20.1980   29.2935   18.5500  _O2    1             0.000000
    909  _O2       18.5500   48.2025   20.1980  _O2    1             0.000000
    910  _O2        5.6340   48.2025   18.5500  _O2    1             0.000000
    911  _O2        7.2820   48.2025    5.6340  _O2    1             0.000000
    912  _O2       20.1980   48.2025    7.2820  _O2    1             0.000000
    913  _O2       18.5500   46.0300   22.3705  _O2    1             0.000000
    914  _O2        5.6340   44.3820   22.3705  _O2    1             0.000000
    915  _O2        7.2820   31.4660   22.3705  _O2    1             0.000000
    916  _O2       20.1980   33.1140   22.3705  _O2    1             0.000000
    917  _O2       18.5500   31.4660    3.4615  _O2    1             0.000000
    918  _O2        5.6340   33.1140    3.4615  _O2    1             0.000000
    919  _O2        7.2820   46.0300    3.4615  _O2    1             0.000000
    920  _O2       20.1980   44.3820    3.4615  _O2    1             0.000000
    921  _O2       22.3705   44.3820   20.1980  _O2    1             0.000000
    922  _O2       22.3705   31.4660   18.5500  _O2    1             0.000000
    923  _O2       22.3705   33.1140    5.6340  _O2    1             0.000000
    924  _O2       22.3705   46.0300    7.2820  _O2    1             0.000000
    925  _O2        3.4615   44.3820    5.6340  _O2    1             0.000000
    926  _O2        3.4615   31.4660    7.2820  _O2    1             0.000000
    927  _O2        3.4615   33.1140   20.1980  _O2    1             0.000000
    928  _O2        3.4615   46.0300   18.5500  _O2    1             0.000000
    929  _O2        7.2820   48.2025   20.1980  _O2    1             0.000000
    930  _O2       20.1980   48.2025   18.5500  _O2    1             0.000000
    931  _O2       18.5500   48.2025    5.6340  _O2    1             0.000000
    932  _O2        5.6340   48.2025    7.2820  _O2    1             0.000000
    933  _O2        7.2820   29.2935    5.6340  _O2    1             0.000000
    934  _O2       20.1980   29.2935    7.2820  _O2    1             0.000000
    935  _O2       18.5500   29.2935   20.1980  _O2    1             0.000000
    936  _O2        5.6340   29.2935   18.5500  _O2    1             0.000000
    937  _O2        7.2820   44.3820   16.3775  _O2    1             0.000000
    938  _O2       20.1980   46.0300   16.3775  _O2    1             0.000000
    939  _O2       18.5500   33.1140   16.3775  _O2    1             0.000000
    940  _O2        5.6340   31.4660   16.3775  _O2    1             0.000000
    941  _O2        7.2820   33.1140    9.4545  _O2    1             0.000000
    942  _O2       20.1980   31.4660    9.4545  _O2    1             0.000000
    943  _O2       18.5500   44.3820    9.4545  _O2    1             0.000000
    944  _O2        5.6340   46.0300    9.4545  _O2    1             0.000000
    945  _O2       18.5500   42.2095   18.5500  _O2    1             0.000000
    946  _O2        5.6340   42.2095   20.1980  _O2    1             0.000000
    947  _O2        7.2820   42.2095    7.2820  _O2    1             0.000000
    948  _O2       20.1980   42.2095    5.6340  _O2    1             0.000000
    949  _O2       18.5500   35.2865    7.2820  _O2    1             0.000000
    950  _O2        5.6340   35.2865    5.6340  _O2    1             0.000000
    951  _O2        7.2820   35.2865   18.5500  _O2    1             0.000000
    952  _O2       20.1980   35.2865   20.1980  _O2    1             0.000000
    953  _O2       18.5500   33.1140    9.4545  _O2    1             0.000000
    954  _O2        5.6340   31.4660    9.4545  _O2    1             0.000000
    955  _O2        7.2820   44.3820    9.4545  _O2    1             0.000000
    956  _O2       20.1980   46.0300    9.4545  _O2    1             0.000000
    957  _O2       18.5500   44.3820   16.3775  _O2    1             0.000000
    958  _O2        5.6340   46.0300   16.3775  _O2    1             0.000000
    959  _O2        7.2820   33.1140   16.3775  _O2    1             0.000000
    960  _O2       20.1980   31.4660   16.3775  _O2    1             0.000000
    961  _O2        7.2820   35.2865    7.2820  _O2    1             0.000000
    962  _O2       20.1980   35.2865    5.6340  _O2    1             0.000000
    963  _O2       18.5500   35.2865   18.5500  _O2    1             0.000000
    964  _O2        5.6340   35.2865   20.1980  _O2    1             0.000000
    965  _O2        7.2820   42.2095   18.5500  _O2    1             0.000000
    966  _O2       20.1980   42.2095   20.1980  _O2    1             0.000000
    967  _O2       18.5500   42.2095    7.2820  _O2    1             0.000000
    968  _O2        5.6340   42.2095    5.6340  _O2    1             0.000000
    969  _O2       16.3775   33.1140   18.5500  _O2    1             0.000000
    970  _O2       16.3775   46.0300   20.1980  _O2    1             0.000000
    971  _O2       16.3775   44.3820    7.2820  _O2    1             0.000000
    972  _O2       16.3775   31.4660    5.6340  _O2    1             0.000000
    973  _O2        9.4545   33.1140    7.2820  _O2    1             0.000000
    974  _O2        9.4545   46.0300    5.6340  _O2    1             0.000000
    975  _O2        9.4545   44.3820   18.5500  _O2    1             0.000000
    976  _O2        9.4545   31.4660   20.1980  _O2    1             0.000000
    977  _O2        9.4545   44.3820    7.2820  _O2    1             0.000000
    978  _O2        9.4545   31.4660    5.6340  _O2    1             0.000000
    979  _O2        9.4545   33.1140   18.5500  _O2    1             0.000000
    980  _O2        9.4545   46.0300   20.1980  _O2    1             0.000000
    981  _O2       16.3775   44.3820   18.5500  _O2    1             0.000000
    982  _O2       16.3775   31.4660   20.1980  _O2    1             0.000000
    983  _O2       16.3775   33.1140    7.2820  _O2    1             0.000000
    984  _O2       16.3775   46.0300    5.6340  _O2    1             0.000000
    985  _C1        6.4580   32.2900    2.8751  _C1    1             0.000000
    986  _C1       19.3740   32.2900    2.8751  _C1    1             0.000000
    987  _C1       19.3740   45.2060    2.8751  _C1    1             0.000000
    988  _C1        6.4580   45.2060    2.8751  _C1    1             0.000000
    989  _C1        6.4580   45.2060   22.9569  _C1    1             0.000000
    990  _C1       19.3740   45.2060   22.9569  _C1    1             0.000000
    991  _C1       19.3740   32.2900   22.9569  _C1    1             0.000000
    992  _C1        6.4580   32.2900   22.9569  _C1    1             0.000000
    993  _C1        2.8751   32.2900    6.4580  _C1    1             0.000000
    994  _C1        2.8751   45.2060    6.4580  _C1    1             0.000000
    995  _C1        2.8751   45.2060   19.3740  _C1    1             0.000000
    996  _C1        2.8751   32.2900   19.3740  _C1    1             0.000000
    997  _C1       22.9569   32.2900   19.3740  _C1    1             0.000000
    998  _C1       22.9569   45.2060   19.3740  _C1    1             0.000000
    999  _C1       22.9569   45.2060    6.4580  _C1    1             0.000000
   1000  _C1       22.9569   32.2900    6.4580  _C1    1             0.000000
   1001  _C1       19.3740   28.7071    6.4580  _C1    1             0.000000
   1002  _C1        6.4580   28.7071    6.4580  _C1    1             0.000000
   1003  _C1        6.4580   28.7071   19.3740  _C1    1             0.000000
   1004  _C1       19.3740   28.7071   19.3740  _C1    1             0.000000
   1005  _C1       19.3740   48.7889   19.3740  _C1    1             0.000000
   1006  _C1        6.4580   48.7889   19.3740  _C1    1             0.000000
   1007  _C1        6.4580   48.7889    6.4580  _C1    1             0.000000
   1008  _C1       19.3740   48.7889    6.4580  _C1    1             0.000000
   1009  _C1        6.4580   45.2060   15.7911  _C1    1             0.000000
   1010  _C1       19.3740   45.2060   15.7911  _C1    1             0.000000
   1011  _C1       19.3740   32.2900   15.7911  _C1    1             0.000000
   1012  _C1        6.4580   32.2900   15.7911  _C1    1             0.000000
   1013  _C1        6.4580   32.2900   10.0409  _C1    1             0.000000
   1014  _C1       19.3740   32.2900   10.0409  _C1    1             0.000000
   1015  _C1       19.3740   45.2060   10.0409  _C1    1             0.000000
   1016  _C1        6.4580   45.2060   10.0409  _C1    1             0.000000
   1017  _C1       19.3740   41.6231   19.3740  _C1    1             0.000000
   1018  _C1        6.4580   41.6231   19.3740  _C1    1             0.000000
   1019  _C1        6.4580   41.6231    6.4580  _C1    1             0.000000
   1020  _C1       19.3740   41.6231    6.4580  _C1    1             0.000000
   1021  _C1       19.3740   35.8729    6.4580  _C1    1             0.000000
   1022  _C1        6.4580   35.8729    6.4580  _C1    1             0.000000
   1023  _C1        6.4580   35.8729   19.3740  _C1    1             0.000000
   1024  _C1       19.3740   35.8729   19.3740  _C1    1             0.000000
   1025  _C1       15.7911   32.2900   19.3740  _C1    1             0.000000
   1026  _C1       15.7911   45.2060   19.3740  _C1    1             0.000000
   1027  _C1       15.7911   45.2060    6.4580  _C1    1             0.000000
   1028  _C1       15.7911   32.2900    6.4580  _C1    1             0.000000
   1029  _C1       10.0409   32.2900    6.4580  _C1    1             0.000000
   1030  _C1       10.0409   45.2060    6.4580  _C1    1             0.000000
   1031  _C1       10.0409   45.2060   19.3740  _C1    1             0.000000
   1032  _C1       10.0409   32.2900   19.3740  _C1    1             0.000000
   1033  _C2        6.4580   32.2900    1.3898  _C2    1             0.000000
   1034  _C2       19.3740   32.2900    1.3898  _C2    1             0.000000
   1035  _C2       19.3740   45.2060    1.3898  _C2    1             0.000000
   1036  _C2        6.4580   45.2060    1.3898  _C2    1             0.000000
   1037  _C2        6.4580   45.2060   24.4422  _C2    1             0.000000
   1038  _C2       19.3740   45.2060   24.4422  _C2    1             0.000000
   1039  _C2       19.3740   32.2900   24.4422  _C2    1             0.000000
   1040  _C2        6.4580   32.2900   24.4422  _C2    1             0.000000
   1041  _C2        1.3898   32.2900    6.4580  _C2    1             0.000000
   1042  _C2        1.3898   45.2060    6.4580  _C2    1             0.000000
   1043  _C2        1.3898   45.2060   19.3740  _C2    1             0.000000
   1044  _C2        1.3898   32.2900   19.3740  _C2    1             0.000000
   1045  _C2       24.4422   32.2900   19.3740  _C2    1             0.000000
   1046  _C2       24.4422   45.2060   19.3740  _C2    1             0.000000
   1047  _C2       24.4422   45.2060    6.4580  _C2    1             0.000000
   1048  _C2       24.4422   32.2900    6.4580  _C2    1             0.000000
   1049  _C2       19.3740   27.2218    6.4580  _C2    1             0.000000
   1050  _C2        6.4580   27.2218    6.4580  _C2    1             0.000000
   1051  _C2        6.4580   27.2218   19.3740  _C2    1             0.000000
   1052  _C2       19.3740   27.2218   19.3740  _C2    1             0.000000
   1053  _C2       19.3740   50.2742   19.3740  _C2    1             0.000000
   1054  _C2        6.4580   50.2742   19.3740  _C2    1             0.000000
   1055  _C2        6.4580   50.2742    6.4580  _C2    1             0.000000
   1056  _C2       19.3740   50.2742    6.4580  _C2    1             0.000000
   1057  _C2        6.4580   45.2060   14.3058  _C2    1             0.000000
   1058  _C2       19.3740   45.2060   14.3058  _C2    1             0.000000
   1059  _C2       19.3740   32.2900   14.3058  _C2    1             0.000000
   1060  _C2        6.4580   32.2900   14.3058  _C2    1             0.000000
   1061  _C2        6.4580   32.2900   11.5262  _C2    1             0.000000
   1062  _C2       19.3740   32.2900   11.5262  _C2    1             0.000000
   1063  _C2       19.3740   45.2060   11.5262  _C2    1             0.000000
   1064  _C2        6.4580   45.2060   11.5262  _C2    1             0.000000
   1065  _C2       19.3740   40.1378   19.3740  _C2    1             0.000000
   1066  _C2        6.4580   40.1378   19.3740  _C2    1             0.000000
   1067  _C2        6.4580   40.1378    6.4580  _C2    1             0.000000
   1068  _C2       19.3740   40.1378    6.4580  _C2    1             0.000000
   1069  _C2       19.3740   37.3582    6.4580  _C2    1             0.000000
   1070  _C2        6.4580   37.3582    6.4580  _C2    1             0.000000
   1071  _C2        6.4580   37.3582   19.3740  _C2    1             0.000000
   1072  _C2       19.3740   37.3582   19.3740  _C2    1             0.000000
   1073  _C2       14.3058   32.2900   19.3740  _C2    1             0.000000
   1074  _C2       14.3058   45.2060   19.3740  _C2    1             0.000000
   1075  _C2       14.3058   45.2060    6.4580  _C2    1             0.000000
   1076  _C2       14.3058   32.2900    6.4580  _C2    1             0.000000
   1077  _C2       11.5262   32.2900    6.4580  _C2    1             0.000000
   1078  _C2       11.5262   45.2060    6.4580  _C2    1             0.000000
   1079  _C2       11.5262   45.2060   19.3740  _C2    1             0.000000
   1080  _C2       11.5262   32.2900   19.3740  _C2    1             0.000000
   1081  _C3        7.3079   31.4401    0.6949  _C3    1             0.000000
   1082  _C3       20.2239   33.1399    0.6949  _C3    1             0.000000
   1083  _C3       18.5241   46.0559    0.6949  _C3    1             0.000000
   1084  _C3        5.6081   44.3561    0.6949  _C3    1             0.000000
   1085  _C3        7.3079   46.0559   25.1371  _C3    1             0.000000
   1086  _C3       20.2239   44.3561   25.1371  _C3    1             0.000000
   1087  _C3       18.5241   31.4401   25.1371  _C3    1             0.000000
   1088  _C3        5.6081   33.1399   25.1371  _C3    1             0.000000
   1089  _C3        0.6949   33.1399    5.6081  _C3    1             0.000000
   1090  _C3        0.6949   46.0559    7.3079  _C3    1             0.000000
   1091  _C3        0.6949   44.3561   20.2239  _C3    1             0.000000
   1092  _C3        0.6949   31.4401   18.5241  _C3    1             0.000000
   1093  _C3       25.1371   33.1399   20.2239  _C3    1             0.000000
   1094  _C3       25.1371   46.0559   18.5241  _C3    1             0.000000
   1095  _C3       25.1371   44.3561    5.6081  _C3    1             0.000000
   1096  _C3       25.1371   31.4401    7.3079  _C3    1             0.000000
   1097  _C3       18.5241   26.5269    5.6081  _C3    1             0.000000
   1098  _C3        5.6081   26.5269    7.3079  _C3    1             0.000000
   1099  _C3        7.3079   26.5269   20.2239  _C3    1             0.000000
   1100  _C3       20.2239   26.5269   18.5241  _C3    1             0.000000
   1101  _C3       18.5241   50.9691   20.2239  _C3    1             0.000000
   1102  _C3        5.6081   50.9691   18.5241  _C3    1             0.000000
   1103  _C3        7.3079   50.9691    5.6081  _C3    1             0.000000
   1104  _C3       20.2239   50.9691    7.3079  _C3    1             0.000000
   1105  _C3       18.5241   46.0559   25.1371  _C3    1             0.000000
   1106  _C3        5.6081   44.3561   25.1371  _C3    1             0.000000
   1107  _C3        7.3079   31.4401   25.1371  _C3    1             0.000000
   1108  _C3       20.2239   33.1399   25.1371  _C3    1             0.000000
   1109  _C3       18.5241   31.4401    0.6949  _C3    1             0.000000
   1110  _C3        5.6081   33.1399    0.6949  _C3    1             0.000000
   1111  _C3        7.3079   46.0559    0.6949  _C3    1             0.000000
   1112  _C3       20.2239   44.3561    0.6949  _C3    1             0.000000
   1113  _C3       25.1371   44.3561   20.2239  _C3    1             0.000000
   1114  _C3       25.1371   31.4401   18.5241  _C3    1             0.000000
   1115  _C3       25.1371   33.1399    5.6081  _C3    1             0.000000
   1116  _C3       25.1371   46.0559    7.3079  _C3    1             0.000000
   1117  _C3        0.6949   44.3561    5.6081  _C3    1             0.000000
   1118  _C3        0.6949   31.4401    7.3079  _C3    1             0.000000
   1119  _C3        0.6949   33.1399   20.2239  _C3    1             0.000000
   1120  _C3        0.6949   46.0559   18.5241  _C3    1             0.000000
   1121  _C3        7.3079   50.9691   20.2239  _C3    1             0.000000
   1122  _C3       20.2239   50.9691   18.5241  _C3    1             0.000000
   1123  _C3       18.5241   50.9691    5.6081  _C3    1             0.000000
   1124  _C3        5.6081   50.9691    7.3079  _C3    1             0.000000
   1125  _C3        7.3079   26.5269    5.6081  _C3    1             0.000000
   1126  _C3       20.2239   26.5269    7.3079  _C3    1             0.000000
   1127  _C3       18.5241   26.5269   20.2239  _C3    1             0.000000
   1128  _C3        5.6081   26.5269   18.5241  _C3    1             0.000000
   1129  _C3        7.3079   44.3561   13.6109  _C3    1             0.000000
   1130  _C3       20.2239   46.0559   13.6109  _C3    1             0.000000
   1131  _C3       18.5241   33.1399   13.6109  _C3    1             0.000000
   1132  _C3        5.6081   31.4401   13.6109  _C3    1             0.000000
   1133  _C3        7.3079   33.1399   12.2211  _C3    1             0.000000
   1134  _C3       20.2239   31.4401   12.2211  _C3    1             0.000000
   1135  _C3       18.5241   44.3561   12.2211  _C3    1             0.000000
   1136  _C3        5.6081   46.0559   12.2211  _C3    1             0.000000
   1137  _C3       18.5241   39.4429   18.5241  _C3    1             0.000000
   1138  _C3        5.6081   39.4429   20.2239  _C3    1             0.000000
   1139  _C3        7.3079   39.4429    7.3079  _C3    1             0.000000
   1140  _C3       20.2239   39.4429    5.6081  _C3    1             0.000000
   1141  _C3       18.5241   38.0531    7.3079  _C3    1             0.000000
   1142  _C3        5.6081   38.0531    5.6081  _C3    1             0.000000
   1143  _C3        7.3079   38.0531   18.5241  _C3    1             0.000000
   1144  _C3       20.2239   38.0531   20.2239  _C3    1             0.000000
   1145  _C3       18.5241   33.1399   12.2211  _C3    1             0.000000
   1146  _C3        5.6081   31.4401   12.2211  _C3    1             0.000000
   1147  _C3        7.3079   44.3561   12.2211  _C3    1             0.000000
   1148  _C3       20.2239   46.0559   12.2211  _C3    1             0.000000
   1149  _C3       18.5241   44.3561   13.6109  _C3    1             0.000000
   1150  _C3        5.6081   46.0559   13.6109  _C3    1             0.000000
   1151  _C3        7.3079   33.1399   13.6109  _C3    1             0.000000
   1152  _C3       20.2239   31.4401   13.6109  _C3    1             0.000000
   1153  _C3        7.3079   38.0531    7.3079  _C3    1             0.000000
   1154  _C3       20.2239   38.0531    5.6081  _C3    1             0.000000
   1155  _C3       18.5241   38.0531   18.5241  _C3    1             0.000000
   1156  _C3        5.6081   38.0531   20.2239  _C3    1             0.000000
   1157  _C3        7.3079   39.4429   18.5241  _C3    1             0.000000
   1158  _C3       20.2239   39.4429   20.2239  _C3    1             0.000000
   1159  _C3       18.5241   39.4429    7.3079  _C3    1             0.000000
   1160  _C3        5.6081   39.4429    5.6081  _C3    1             0.000000
   1161  _C3       13.6109   33.1399   18.5241  _C3    1             0.000000
   1162  _C3       13.6109   46.0559   20.2239  _C3    1             0.000000
   1163  _C3       13.6109   44.3561    7.3079  _C3    1             0.000000
   1164  _C3       13.6109   31.4401    5.6081  _C3    1             0.000000
   1165  _C3       12.2211   33.1399    7.3079  _C3    1             0.000000
   1166  _C3       12.2211   46.0559    5.6081  _C3    1             0.000000
   1167  _C3       12.2211   44.3561   18.5241  _C3    1             0.000000
   1168  _C3       12.2211   31.4401   20.2239  _C3    1             0.000000
   1169  _C3       12.2211   44.3561    7.3079  _C3    1             0.000000
   1170  _C3       12.2211   31.4401    5.6081  _C3    1             0.000000
   1171  _C3       12.2211   33.1399   18.5241  _C3    1             0.000000
   1172  _C3       12.2211   46.0559   20.2239  _C3    1             0.000000
   1173  _C3       13.6109   44.3561   18.5241  _C3    1             0.000000
   1174  _C3       13.6109   31.4401   20.2239  _C3    1             0.000000
   1175  _C3       13.6109   33.1399    7.3079  _C3    1             0.000000
   1176  _C3       13.6109   46.0559    5.6081  _C3    1             0.000000
   1177  _H1        7.8762   30.8718    1.1573  _H1    1             0.000000
   1178  _H1       20.7922   33.7082    1.1573  _H1    1             0.000000
   1179  _H1       17.9558   46.6242    1.1573  _H1    1             0.000000
   1180  _H1        5.0398   43.7878    1.1573  _H1    1             0.000000
   1181  _H1        7.8762   46.6242   24.6747  _H1    1             0.000000
   1182  _H1       20.7922   43.7878   24.6747  _H1    1             0.000000
   1183  _H1       17.9558   30.8718   24.6747  _H1    1             0.000000
   1184  _H1        5.0398   33.7082   24.6747  _H1    1             0.000000
   1185  _H1        1.1573   33.7082    5.0398  _H1    1             0.000000
   1186  _H1        1.1573   46.6242    7.8762  _H1    1             0.000000
   1187  _H1        1.1573   43.7878   20.7922  _H1    1             0.000000
   1188  _H1        1.1573   30.8718   17.9558  _H1    1             0.000000
   1189  _H1       24.6747   33.7082   20.7922  _H1    1             0.000000
   1190  _H1       24.6747   46.6242   17.9558  _H1    1             0.000000
   1191  _H1       24.6747   43.7878    5.0398  _H1    1             0.000000
   1192  _H1       24.6747   30.8718    7.8762  _H1    1             0.000000
   1193  _H1       17.9558   26.9893    5.0398  _H1    1             0.000000
   1194  _H1        5.0398   26.9893    7.8762  _H1    1             0.000000
   1195  _H1        7.8762   26.9893   20.7922  _H1    1             0.000000
   1196  _H1       20.7922   26.9893   17.9558  _H1    1             0.000000
   1197  _H1       17.9558   50.5067   20.7922  _H1    1             0.000000
   1198  _H1        5.0398   50.5067   17.9558  _H1    1             0.000000
   1199  _H1        7.8762   50.5067    5.0398  _H1    1             0.000000
   1200  _H1       20.7922   50.5067    7.8762  _H1    1             0.000000
   1201  _H1       17.9558   46.6242   24.6747  _H1    1             0.000000
   1202  _H1        5.0398   43.7878   24.6747  _H1    1             0.000000
   1203  _H1        7.8762   30.8718   24.6747  _H1    1             0.000000
   1204  _H1       20.7922   33.7082   24.6747  _H1    1             0.000000
   1205  _H1       17.9558   30.8718    1.1573  _H1    1             0.000000
   1206  _H1        5.0398   33.7082    1.1573  _H1    1             0.000000
   1207  _H1        7.8762   46.6242    1.1573  _H1    1             0.000000
   1208  _H1       20.7922   43.7878    1.1573  _H1    1             0.000000
   1209  _H1       24.6747   43.7878   20.7922  _H1    1             0.000000
   1210  _H1       24.6747   30.8718   17.9558  _H1    1             0.000000
   1211  _H1       24.6747   33.7082    5.0398  _H1    1             0.000000
   1212  _H1       24.6747   46.6242    7.8762  _H1    1             0.000000
   1213  _H1        1.1573   43.7878    5.0398  _H1    1             0.000000
   1214  _H1        1.1573   30.8718    7.8762  _H1    1             0.000000
   1215  _H1        1.1573   33.7082   20.7922  _H1    1             0.000000
   1216  _H1        1.1573   46.6242   17.9558  _H1    1             0.000000
   1217  _H1        7.8762   50.5067   20.7922  _H1    1             0.000000
   1218  _H1       20.7922   50.5067   17.9558  _H1    1             0.000000
   1219  _H1       17.9558   50.5067    5.0398  _H1    1             0.000000
   1220  _H1        5.0398   50.5067    7.8762  _H1    1             0.000000
   1221  _H1        7.8762   26.9893    5.0398  _H1    1             0.000000
   1222  _H1       20.7922   26.9893    7.8762  _H1    1             0.000000
   1223  _H1       17.9558   26.9893   20.7922  _H1    1             0.000000
   1224  _H1        5.0398   26.9893   17.9558  _H1    1             0.000000
   1225  _H1        7.8762   43.7878   14.0733  _H1    1             0.000000
   1226  _H1       20.7922   46.6242   14.0733  _H1    1             0.000000
   1227  _H1       17.9558   33.7082   14.0733  _H1    1             0.000000
   1228  _H1        5.0398   30.8718   14.0733  _H1    1             0.000000
   1229  _H1        7.8762   33.7082   11.7587  _H1    1             0.000000
   1230  _H1       20.7922   30.8718   11.7587  _H1    1             0.000000
   1231  _H1       17.9558   43.7878   11.7587  _H1    1             0.000000
   1232  _H1        5.0398   46.6242   11.7587  _H1    1             0.000000
   1233  _H1       17.9558   39.9053   17.9558  _H1    1             0.000000
   1234  _H1        5.0398   39.9053   20.7922  _H1    1             0.000000
   1235  _H1        7.8762   39.9053    7.8762  _H1    1             0.000000
   1236  _H1       20.7922   39.9053    5.0398  _H1    1             0.000000
   1237  _H1       17.9558   37.5907    7.8762  _H1    1             0.000000
   1238  _H1        5.0398   37.5907    5.0398  _H1    1             0.000000
   1239  _H1        7.8762   37.5907   17.9558  _H1    1             0.000000
   1240  _H1       20.7922   37.5907   20.7922  _H1    1             0.000000
   1241  _H1       17.9558   33.7082   11.7587  _H1    1             0.000000
   1242  _H1        5.0398   30.8718   11.7587  _H1    1             0.000000
   1243  _H1        7.8762   43.7878   11.7587  _H1    1             0.000000
   1244  _H1       20.7922   46.6242   11.7587  _H1    1             0.000000
   1245  _H1       17.9558   43.7878   14.0733  _H1    1             0.000000
   1246  _H1        5.0398   46.6242   14.0733  _H1    1             0.000000
   1247  _H1        7.8762   33.7082   14.0733  _H1    1             0.000000
   1248  _H1       20.7922   30.8718   14.0733  _H1    1             0.000000
   1249  _H1        7.8762   37.5907    7.8762  _H1    1             0.000000
   1250  _H1       20.7922   37.5907    5.0398  _H1    1             0.000000
   1251  _H1       17.9558   37.5907   17.9558  _H1    1             0.000000
   1252  _H1        5.0398   37.5907   20.7922  _H1    1             0.000000
   1253  _H1        7.8762   39.9053   17.9558  _H1    1             0.000000
   1254  _H1       20.7922   39.9053   20.7922  _H1    1             0.000000
   1255  _H1       17.9558   39.9053    7.8762  _H1    1             0.000000
   1256  _H1        5.0398   39.9053    5.0398  _H1    1             0.000000
   1257  _H1       14.0733   33.7082   17.9558  _H1    1             0.000000
   1258  _H1       14.0733   46.6242   20.7922  _H1    1             0.000000
   1259  _H1       14.0733   43.7878    7.8762  _H1    1             0.000000
   1260  _H1       14.0733   30.8718    5.0398  _H1    1             0.000000
   1261  _H1       11.7587   33.7082    7.8762  _H1    1             0.000000
   1262  _H1       11.7587   46.6242    5.0398  _H1    1             0.000000
   1263  _H1       11.7587   43.7878   17.9558  _H1    1             0.000000
   1264  _H1       11.7587   30.8718   20.7922  _H1    1             0.000000
   1265  _H1       11.7587   43.7878    7.8762  _H1    1             0.000000
   1266  _H1       11.7587   30.8718    5.0398  _H1    1             0.000000
   1267  _H1       11.7587   33.7082   17.9558  _H1    1             0.000000
   1268  _H1       11.7587   46.6242   20.7922  _H1    1             0.000000
   1269  _H1       14.0733   43.7878   17.9558  _H1    1             0.000000
   1270  _H1       14.0733   30.8718   20.7922  _H1    1             0.000000
   1271  _H1       14.0733   33.7082    7.8762  _H1    1             0.000000
   1272  _H1       14.0733   46.6242    5.0398  _H1    1             0.000000
   1273 _Zn1        7.5791   31.1689   31.1689 _Zn1    1             0.000000
   1274 _Zn1       20.4951   33.4111   31.1689 _Zn1    1             0.000000
   1275 _Zn1       18.2529   46.3271   31.1689 _Zn1    1             0.000000
   1276 _Zn1        5.3369   44.0849   31.1689 _Zn1    1             0.000000
   1277 _Zn1        7.5791   46.3271   46.3271 _Zn1    1             0.000000
   1278 _Zn1       20.4951   44.0849   46.3271 _Zn1    1             0.000000
   1279 _Zn1       18.2529   31.1689   46.3271 _Zn1    1             0.000000
   1280 _Zn1        5.3369   33.4111   46.3271 _Zn1    1             0.000000
   1281 _Zn1        5.3369   33.4111   31.1689 _Zn1    1             0.000000
   1282 _Zn1        5.3369   46.3271   33.4111 _Zn1    1             0.000000
   1283 _Zn1        5.3369   44.0849   46.3271 _Zn1    1             0.000000
   1284 _Zn1        5.3369   31.1689   44.0849 _Zn1    1             0.000000
   1285 _Zn1       20.4951   33.4111   46.3271 _Zn1    1             0.000000
   1286 _Zn1       20.4951   46.3271   44.0849 _Zn1    1             0.000000
   1287 _Zn1       20.4951   44.0849   31.1689 _Zn1    1             0.000000
   1288 _Zn1       20.4951   31.1689   33.4111 _Zn1    1             0.000000
   1289 _Zn1       18.2529   31.1689   31.1689 _Zn1    1             0.000000
   1290 _Zn1        5.3369   31.1689   33.4111 _Zn1    1             0.000000
   1291 _Zn1        7.5791   31.1689   46.3271 _Zn1    1             0.000000
   1292 _Zn1       20.4951   31.1689   44.0849 _Zn1    1             0.000000
   1293 _Zn1       18.2529   46.3271   46.3271 _Zn1    1             0.000000
   1294 _Zn1        5.3369   46.3271   44.0849 _Zn1    1             0.000000
   1295 _Zn1        7.5791   46.3271   31.1689 _Zn1    1             0.000000
   1296 _Zn1       20.4951   46.3271   33.4111 _Zn1    1             0.000000
   1297 _Zn1        7.5791   44.0849   44.0849 _Zn1    1             0.000000
   1298 _Zn1       18.2529   33.4111   44.0849 _Zn1    1             0.000000
   1299 _Zn1        7.5791   33.4111   33.4111 _Zn1    1             0.000000
   1300 _Zn1       18.2529   44.0849   33.4111 _Zn1    1             0.000000
   1301 _Zn1       18.2529   44.0849   44.0849 _Zn1    1             0.000000
   1302 _Zn1        7.5791   44.0849   33.4111 _Zn1    1             0.000000
   1303 _Zn1       18.2529   33.4111   33.4111 _Zn1    1             0.000000
   1304 _Zn1        7.5791   33.4111   44.0849 _Zn1    1             0.000000
   1305  _O1        6.4580   32.2900   32.2900  _O1    1             0.000000
   1306  _O1       19.3740   32.2900   32.2900  _O1    1             0.000000
   1307  _O1       19.3740   45.2060   32.2900  _O1    1             0.000000
   1308  _O1        6.4580   45.2060   32.2900  _O1    1             0.000000
   1309  _O1        6.4580   45.2060   45.2060  _O1    1             0.000000
   1310  _O1       19.3740   45.2060   45.2060  _O1    1             0.000000
   1311  _O1       19.3740   32.2900   45.2060  _O1    1             0.000000
   1312  _O1        6.4580   32.2900   45.2060  _O1    1             0.000000
   1313  _O2        7.2820   31.4660   29.2935  _O2    1             0.000000
   1314  _O2       20.1980   33.1140   29.2935  _O2    1             0.000000
   1315  _O2       18.5500   46.0300   29.2935  _O2    1             0.000000
   1316  _O2        5.6340   44.3820   29.2935  _O2    1             0.000000
   1317  _O2        7.2820   46.0300   48.2025  _O2    1             0.000000
   1318  _O2       20.1980   44.3820   48.2025  _O2    1             0.000000
   1319  _O2       18.5500   31.4660   48.2025  _O2    1             0.000000
   1320  _O2        5.6340   33.1140   48.2025  _O2    1             0.000000
   1321  _O2        3.4615   33.1140   31.4660  _O2    1             0.000000
   1322  _O2        3.4615   46.0300   33.1140  _O2    1             0.000000
   1323  _O2        3.4615   44.3820   46.0300  _O2    1             0.000000
   1324  _O2        3.4615   31.4660   44.3820  _O2    1             0.000000
   1325  _O2       22.3705   33.1140   46.0300  _O2    1             0.000000
   1326  _O2       22.3705   46.0300   44.3820  _O2    1             0.000000
   1327  _O2       22.3705   44.3820   31.4660  _O2    1             0.000000
   1328  _O2       22.3705   31.4660   33.1140  _O2    1             0.000000
   1329  _O2       18.5500   29.2935   31.4660  _O2    1             0.000000
   1330  _O2        5.6340   29.2935   33.1140  _O2    1             0.000000
   1331  _O2        7.2820   29.2935   46.0300  _O2    1             0.000000
   1332  _O2       20.1980   29.2935   44.3820  _O2    1             0.000000
   1333  _O2       18.5500   48.2025   46.0300  _O2    1             0.000000
   1334  _O2        5.6340   48.2025   44.3820  _O2    1             0.000000
   1335  _O2        7.2820   48.2025   31.4660  _O2    1             0.000000
   1336  _O2       20.1980   48.2025   33.1140  _O2    1             0.000000
   1337  _O2       18.5500   46.0300   48.2025  _O2    1             0.000000
   1338  _O2        5.6340   44.3820   48.2025  _O2    1             0.000000
   1339  _O2        7.2820   31.4660   48.2025  _O2    1             0.000000
   1340  _O2       20.1980   33.1140   48.2025  _O2    1             0.000000
   1341  _O2       18.5500   31.4660   29.2935  _O2    1             0.000000
   1342  _O2        5.6340   33.1140   29.2935  _O2    1             0.000000
   1343  _O2        7.2820   46.0300   29.2935  _O2    1             0.000000
   1344  _O2       20.1980   44.3820   29.2935  _O2    1             0.000000
   1345  _O2       22.3705   44.3820   46.0300  _O2    1             0.000000
   1346  _O2       22.3705   31.4660   44.3820  _O2    1             0.000000
   1347  _O2       22.3705   33.1140   31.4660  _O2    1             0.000000
   1348  _O2       22.3705   46.0300   33.1140  _O2    1             0.000000
   1349  _O2        3.4615   44.3820   31.4660  _O2    1             0.000000
   1350  _O2        3.4615   31.4660   33.1140  _O2    1             0.000000
   1351  _O2        3.4615   33.1140   46.0300  _O2    1             0.000000
   1352  _O2        3.4615   46.0300   44.3820  _O2    1             0.000000
   1353  _O2        7.2820   48.2025   46.0300  _O2    1             0.000000
   1354  _O2       20.1980   48.2025   44.3820  _O2    1             0.000000
   1355  _O2       18.5500   48.2025   31.4660  _O2    1             0.000000
   1356  _O2        5.6340   48.2025   33.1140  _O2    1             0.000000
   1357  _O2        7.2820   29.2935   31.4660  _O2    1             0.000000
   1358  _O2       20.1980   29.2935   33.1140  _O2    1             0.000000
   1359  _O2       18.5500   29.2935   46.0300  _O2    1             0.000000
   1360  _O2        5.6340   29.2935   44.3820  _O2    1             0.000000
   1361  _O2        7.2820   44.3820   42.2095  _O2    1             0.000000
   1362  _O2       20.1980   46.0300   42.2095  _O2    1             0.000000
   1363  _O2       18.5500   33.1140   42.2095  _O2    1             0.000000
   1364  _O2        5.6340   31.4660   42.2095  _O2    1             0.000000
   1365  _O2        7.2820   33.1140   35.2865  _O2    1             0.000000
   1366  _O2       20.1980   31.4660   35.2865  _O2    1             0.000000
   1367  _O2       18.5500   44.3820   35.2865  _O2    1             0.000000
   1368  _O2        5.6340   46.0300   35.2865  _O2    1             0.000000
   1369  _O2       18.5500   42.2095   44.3820  _O2    1             0.000000
   1370  _O2        5.6340   42.2095   46.0300  _O2    1             0.000000
   1371  _O2        7.2820   42.2095   33.1140  _O2    1             0.000000
   1372  _O2       20.1980   42.2095   31.4660  _O2    1             0.000000
   1373  _O2       18.5500   35.2865   33.1140  _O2    1             0.000000
   1374  _O2        5.6340   35.2865   31.4660  _O2    1             0.000000
   1375  _O2        7.2820   35.2865   44.3820  _O2    1             0.000000
   1376  _O2       20.1980   35.2865   46.0300  _O2    1             0.000000
   1377  _O2       18.5500   33.1140   35.2865  _O2    1             0.000000
   1378  _O2        5.6340   31.4660   35.2865  _O2    1             0.000000
   1379  _O2        7.2820   44.3820   35.2865  _O2    1             0.000000
   1380  _O2       20.1980   46.0300   35.2865  _O2    1             0.000000
   1381  _O2       18.5500   44.3820   42.2095  _O2    1             0.000000
   1382  _O2        5.6340   46.0300   42.2095  _O2    1             0.000000
   1383  _O2        7.2820   33.1140   42.2095  _O2    1             0.000000
   1384  _O2       20.1980   31.4660   42.2095  _O2    1             0.000000
   1385  _O2        7.2820   35.2865   33.1140  _O2    1             0.000000
   1386  _O2       20.1980   35.2865   31.4660  _O2    1             0.000000
   1387  _O2       18.5500   35.2865   44.3820  _O2    1             0.000000
   1388  _O2        5.6340   35.2865   46.0300  _O2    1             0.000000
   1389  _O2        7.2820   42.2095   44.3820  _O2    1             0.000000
   1390  _O2       20.1980   42.2095   46.0300  _O2    1             0.000000
   1391  _O2       18.5500   42.2095   33.1140  _O2    1             0.000000
   1392  _O2        5.6340   42.2095   31.4660  _O2    1             0.000000
   1393  _O2       16.3775   33.1140   44.3820  _O2    1             0.000000
   1394  _O2       16.3775   46.0300   46.0300  _O2    1             0.000000
   1395  _O2       16.3775   44.3820   33.1140  _O2    1             0.000000
   1396  _O2       16.3775   31.4660   31.4660  _O2    1             0.000000
   1397  _O2        9.4545   33.1140   33.1140  _O2    1             0.000000
   1398  _O2        9.4545   46.0300   31.4660  _O2    1             0.000000
   1399  _O2        9.4545   44.3820   44.3820  _O2    1             0.000000
   1400  _O2        9.4545   31.4660   46.0300  _O2    1             0.000000
   1401  _O2        9.4545   44.3820   33.1140  _O2    1             0.000000
   1402  _O2        9.4545   31.4660   31.4660  _O2    1             0.000000
   1403  _O2        9.4545   33.1140   44.3820  _O2    1             0.000000
   1404  _O2        9.4545   46.0300   46.0300  _O2    1             0.000000
   1405  _O2       16.3775   44.3820   44.3820  _O2    1             0.000000
   1406  _O2       16.3775   31.4660   46.0300  _O2    1             0.000000
   1407  _O2       16.3775   33.1140   33.1140  _O2    1             0.000000
   1408  _O2       16.3775   46.0300   31.4660  _O2    1             0.000000
   1409  _C1        6.4580   32.2900   28.7071  _C1    1             0.000000
   1410  _C1       19.3740   32.2900   28.7071  _C1    1             0.000000
   1411  _C1       19.3740   45.2060   28.7071  _C1    1             0.000000
   1412  _C1        6.4580   45.2060   28.7071  _C1    1             0.000000
   1413  _C1        6.4580   45.2060   48.7889  _C1    1             0.000000
   1414  _C1       19.3740   45.2060   48.7889  _C1    1             0.000000
   1415  _C1       19.3740   32.2900   48.7889  _C1    1             0.000000
   1416  _C1        6.4580   32.2900   48.7889  _C1    1             0.000000
   1417  _C1        2.8751   32.2900   32.2900  _C1    1             0.000000
   1418  _C1        2.8751   45.2060   32.2900  _C1    1             0.000000
   1419  _C1        2.8751   45.2060   45.2060  _C1    1             0.000000
   1420  _C1        2.8751   32.2900   45.2060  _C1    1             0.000000
   1421  _C1       22.9569   32.2900   45.2060  _C1    1             0.000000
   1422  _C1       22.9569   45.2060   45.2060  _C1    1             0.000000
   1423  _C1       22.9569   45.2060   32.2900  _C1    1             0.000000
   1424  _C1       22.9569   32.2900   32.2900  _C1    1             0.000000
   1425  _C1       19.3740   28.7071   32.2900  _C1    1             0.000000
   1426  _C1        6.4580   28.7071   32.2900  _C1    1             0.000000
   1427  _C1        6.4580   28.7071   45.2060  _C1    1             0.000000
   1428  _C1       19.3740   28.7071   45.2060  _C1    1             0.000000
   1429  _C1       19.3740   48.7889   45.2060  _C1    1             0.000000
   1430  _C1        6.4580   48.7889   45.2060  _C1    1             0.000000
   1431  _C1        6.4580   48.7889   32.2900  _C1    1             0.000000
   1432  _C1       19.3740   48.7889   32.2900  _C1    1             0.000000
   1433  _C1        6.4580   45.2060   41.6231  _C1    1             0.000000
   1434  _C1       19.3740   45.2060   41.6231  _C1    1             0.000000
   1435  _C1       19.3740   32.2900   41.6231  _C1    1             0.000000
   1436  _C1        6.4580   32.2900   41.6231  _C1    1             0.000000
   1437  _C1        6.4580   32.2900   35.8729  _C1    1             0.000000
   1438  _C1       19.3740   32.2900   35.8729  _C1    1             0.000000
   1439  _C1       19.3740   45.2060   35.8729  _C1    1             0.000000
   1440  _C1        6.4580   45.2060   35.8729  _C1    1             0.000000
   1441  _C1       19.3740   41.6231   45.2060  _C1    1             0.000000
   1442  _C1        6.4580   41.6231   45.2060  _C1    1             0.000000
   1443  _C1        6.4580   41.6231   32.2900  _C1    1             0.000000
   1444  _C1       19.3740   41.6231   32.2900  _C1    1             0.000000
   1445  _C1       19.3740   35.8729   32.2900  _C1    1             0.000000
   1446  _C1        6.4580   35.8729   32.2900  _C1    1             0.000000
   1447  _C1        6.4580   35.8729   45.2060  _C1    1             0.000000
   1448  _C1       19.3740   35.8729   45.2060  _C1    1             0.000000
   1449  _C1       15.7911   32.2900   45.2060  _C1    1             0.000000
   1450  _C1       15.7911   45.2060   45.2060  _C1    1             0.000000
   1451  _C1       15.7911   45.2060   32.2900  _C1    1             0.000000
   1452  _C1       15.7911   32.2900   32.2900  _C1    1             0.000000
   1453  _C1       10.0409   32.2900   32.2900  _C1    1             0.000000
   1454  _C1       10.0409   45.2060   32.2900  _C1    1             0.000000
   1455  _C1       10.0409   45.2060   45.2060  _C1    1             0.000000
   1456  _C1       10.0409   32.2900   45.2060  _C1    1             0.000000
   1457  _C2        6.4580   32.2900   27.2218  _C2    1             0.000000
   1458  _C2       19.3740   32.2900   27.2218  _C2    1             0.000000
   1459  _C2       19.3740   45.2060   27.2218  _C2    1             0.000000
   1460  _C2        6.4580   45.2060   27.2218  _C2    1             0.000000
   1461  _C2        6.4580   45.2060   50.2742  _C2    1             0.000000
   1462  _C2       19.3740   45.2060   50.2742  _C2    1             0.000000
   1463  _C2       19.3740   32.2900   50.2742  _C2    1             0.000000
   1464  _C2        6.4580   32.2900   50.2742  _C2    1             0.000000
   1465  _C2        1.3898   32.2900   32.2900  _C2    1             0.000000
   1466  _C2        1.3898   45.2060   32.2900  _C2    1             0.000000
   1467  _C2        1.3898   45.2060   45.2060  _C2    1             0.000000
   1468  _C2        1.3898   32.2900   45.2060  _C2    1             0.000000
   1469  _C2       24.4422   32.2900   45.2060  _C2    1             0.000000
   1470  _C2       24.4422   45.2060   45.2060  _C2    1             0.000000
   1471  _C2       24.4422   45.2060   32.2900  _C2    1             0.000000
   1472  _C2       24.4422   32.2900   32.2900  _C2    1             0.000000
   1473  _C2       19.3740   27.2218   32.2900  _C2    1             0.000000
   1474  _C2        6.4580   27.2218   32.2900  _C2    1             0.000000
   1475  _C2        6.4580   27.2218   45.2060  _C2    1             0.000000
   1476  _C2       19.3740   27.2218   45.2060  _C2    1             0.000000
   1477  _C2       19.3740   50.2742   45.2060  _C2    1             0.000000
   1478  _C2        6.4580   50.2742   45.2060  _C2    1             0.000000
   1479  _C2        6.4580   50.2742   32.2900  _C2    1             0.000000
   1480  _C2       19.3740   50.2742   32.2900  _C2    1             0.000000
   1481  _C2        6.4580   45.2060   40.1378  _C2    1             0.000000
   1482  _C2       19.3740   45.2060   40.1378  _C2    1             0.000000
   1483  _C2       19.3740   32.2900   40.1378  _C2    1             0.000000
   1484  _C2        6.4580   32.2900   40.1378  _C2    1             0.000000
   1485  _C2        6.4580   32.2900   37.3582  _C2    1             0.000000
   1486  _C2       19.3740   32.2900   37.3582  _C2    1             0.000000
   1487  _C2       19.3740   45.2060   37.3582  _C2    1             0.000000
   1488  _C2        6.4580   45.2060   37.3582  _C2    1             0.000000
   1489  _C2       19.3740   40.1378   45.2060  _C2    1             0.000000
   1490  _C2        6.4580   40.1378   45.2060  _C2    1             0.000000
   1491  _C2        6.4580   40.1378   32.2900  _C2    1             0.000000
   1492  _C2       19.3740   40.1378   32.2900  _C2    1             0.000000
   1493  _C2       19.3740   37.3582   32.2900  _C2    1             0.000000
   1494  _C2        6.4580   37.3582   32.2900  _C2    1             0.000000
   1495  _C2        6.4580   37.3582   45.2060  _C2    1             0.000000
   1496  _C2       19.3740   37.3582   45.2060  _C2    1             0.000000
   1497  _C2       14.3058   32.2900   45.2060  _C2    1             0.000000
   1498  _C2       14.3058   45.2060   45.2060  _C2    1             0.000000
   1499  _C2       14.3058   45.2060   32.2900  _C2    1             0.000000
   1500  _C2       14.3058   32.2900   32.2900  _C2    1             0.000000
   1501  _C2       11.5262   32.2900   32.2900  _C2    1             0.000000
   1502  _C2       11.5262   45.2060   32.2900  _C2    1             0.000000
   1503  _C2       11.5262   45.2060   45.2060  _C2    1             0.000000
   1504  _C2       11.5262   32.2900   45.2060  _C2    1             0.000000
   1505  _C3        7.3079   31.4401   26.5269  _C3    1             0.000000
   1506  _C3       20.2239   33.1399   26.5269  _C3    1             0.000000
   1507  _C3       18.5241   46.0559   26.5269  _C3    1             0.000000
   1508  _C3        5.6081   44.3561   26.5269  _C3    1             0.000000
   1509  _C3        7.3079   46.0559   50.9691  _C3    1             0.000000
   1510  _C3       20.2239   44.3561   50.9691  _C3    1             0.000000
   1511  _C3       18.5241   31.4401   50.9691  _C3    1             0.000000
   1512  _C3        5.6081   33.1399   50.9691  _C3    1             0.000000
   1513  _C3        0.6949   33.1399   31.4401  _C3    1             0.000000
   1514  _C3        0.6949   46.0559   33.1399  _C3    1             0.000000
   1515  _C3        0.6949   44.3561   46.0559  _C3    1             0.000000
   1516  _C3        0.6949   31.4401   44.3561  _C3    1             0.000000
   1517  _C3       25.1371   33.1399   46.0559  _C3    1             0.000000
   1518  _C3       25.1371   46.0559   44.3561  _C3    1             0.000000
   1519  _C3       25.1371   44.3561   31.4401  _C3    1             0.000000
   1520  _C3       25.1371   31.4401   33.1399  _C3    1             0.000000
   1521  _C3       18.5241   26.5269   31.4401  _C3    1             0.000000
   1522  _C3        5.6081   26.5269   33.1399  _C3    1             0.000000
   1523  _C3        7.3079   26.5269   46.0559  _C3    1             0.000000
   1524  _C3       20.2239   26.5269   44.3561  _C3    1             0.000000
   1525  _C3       18.5241   50.9691   46.0559  _C3    1             0.000000
   1526  _C3        5.6081   50.9691   44.3561  _C3    1             0.000000
   1527  _C3        7.3079   50.9691   31.4401  _C3    1             0.000000
   1528  _C3       20.2239   50.9691   33.1399  _C3    1             0.000000
   1529  _C3       18.5241   46.0559   50.9691  _C3    1             0.000000
   1530  _C3        5.6081   44.3561   50.9691  _C3    1             0.000000
   1531  _C3        7.3079   31.4401   50.9691  _C3    1             0.000000
   1532  _C3       20.2239   33.1399   50.9691  _C3    1             0.000000
   1533  _C3       18.5241   31.4401   26.5269  _C3    1             0.000000
   1534  _C3        5.6081   33.1399   26.5269  _C3    1             0.000000
   1535  _C3        7.3079   46.0559   26.5269  _C3    1             0.000000
   1536  _C3       20.2239   44.3561   26.5269  _C3    1             0.000000
   1537  _C3       25.1371   44.3561   46.0559  _C3    1             0.000000
   1538  _C3       25.1371   31.4401   44.3561  _C3    1             0.000000
   1539  _C3       25.1371   33.1399   31.4401  _C3    1             0.000000
   1540  _C3       25.1371   46.0559   33.1399  _C3    1             0.000000
   1541  _C3        0.6949   44.3561   31.4401  _C3    1             0.000000
   1542  _C3        0.6949   31.4401   33.1399  _C3    1             0.000000
   1543  _C3        0.6949   33.1399   46.0559  _C3    1             0.000000
   1544  _C3        0.6949   46.0559   44.3561  _C3    1             0.000000
   1545  _C3        7.3079   50.9691   46.0559  _C3    1             0.000000
   1546  _C3       20.2239   50.9691   44.3561  _C3    1             0.000000
   1547  _C3       18.5241   50.9691   31.4401  _C3    1             0.000000
   1548  _C3        5.6081   50.9691   33.1399  _C3    1             0.000000
   1549  _C3        7.3079   26.5269   31.4401  _C3    1             0.000000
   1550  _C3       20.2239   26.5269   33.1399  _C3    1             0.000000
   1551  _C3       18.5241   26.5269   46.0559  _C3    1             0.000000
   1552  _C3        5.6081   26.5269   44.3561  _C3    1             0.000000
   1553  _C3        7.3079   44.3561   39.4429  _C3    1             0.000000
   1554  _C3       20.2239   46.0559   39.4429  _C3    1             0.000000
   1555  _C3       18.5241   33.1399   39.4429  _C3    1             0.000000
   1556  _C3        5.6081   31.4401   39.4429  _C3    1             0.000000
   1557  _C3        7.3079   33.1399   38.0531  _C3    1             0.000000
   1558  _C3       20.2239   31.4401   38.0531  _C3    1             0.000000
   1559  _C3       18.5241   44.3561   38.0531  _C3    1             0.000000
   1560  _C3        5.6081   46.0559   38.0531  _C3    1             0.000000
   1561  _C3       18.5241   39.4429   44.3561  _C3    1             0.000000
   1562  _C3        5.6081   39.4429   46.0559  _C3    1             0.000000
   1563  _C3        7.3079   39.4429   33.1399  _C3    1             0.000000
   1564  _C3       20.2239   39.4429   31.4401  _C3    1             0.000000
   1565  _C3       18.5241   38.0531   33.1399  _C3    1             0.000000
   1566  _C3        5.6081   38.0531   31.4401  _C3    1             0.000000
   1567  _C3        7.3079   38.0531   44.3561  _C3    1             0.000000
   1568  _C3       20.2239   38.0531   46.0559  _C3    1             0.000000
   1569  _C3       18.5241   33.1399   38.0531  _C3    1             0.000000
   1570  _C3        5.6081   31.4401   38.0531  _C3    1             0.000000
   1571  _C3        7.3079   44.3561   38.0531  _C3    1             0.000000
   1572  _C3       20.2239   46.0559   38.0531  _C3    1             0.000000
   1573  _C3       18.5241   44.3561   39.4429  _C3    1             0.000000
   1574  _C3        5.6081   46.0559   39.4429  _C3    1             0.000000
   1575  _C3        7.3079   33.1399   39.4429  _C3    1             0.000000
   1576  _C3       20.2239   31.4401   39.4429  _C3    1             0.000000
   1577  _C3        7.3079   38.0531   33.1399  _C3    1             0.000000
   1578  _C3       20.2239   38.0531   31.4401  _C3    1             0.000000
   1579  _C3       18.5241   38.0531   44.3561  _C3    1             0.000000
   1580  _C3        5.6081   38.0531   46.0559  _C3    1             0.000000
   1581  _C3        7.3079   39.4429   44.3561  _C3    1             0.000000
   1582  _C3       20.2239   39.4429   46.0559  _C3    1             0.000000
   1583  _C3       18.5241   39.4429   33.1399  _C3    1             0.000000
   1584  _C3        5.6081   39.4429   31.4401  _C3    1             0.000000
   1585  _C3       13.6109   33.1399   44.3561  _C3    1             0.000000
   1586  _C3       13.6109   46.0559   46.0559  _C3    1             0.000000
   1587  _C3       13.6109   44.3561   33.1399  _C3    1             0.000000
   1588  _C3       13.6109   31.4401   31.4401  _C3    1             0.000000
   1589  _C3       12.2211   33.1399   33.1399  _C3    1             0.000000
   1590  _C3       12.2211   46.0559   31.4401  _C3    1             0.000000
   1591  _C3       12.2211   44.3561   44.3561  _C3    1             0.000000
   1592  _C3       12.2211   31.4401   46.0559  _C3    1             0.000000
   1593  _C3       12.2211   44.3561   33.1399  _C3    1             0.000000
   1594  _C3       12.2211   31.4401   31.4401  _C3    1             0.000000
   1595  _C3       12.2211   33.1399   44.3561  _C3    1             0.000000
   1596  _C3       12.2211   46.0559   46.0559  _C3    1             0.000000
   1597  _C3       13.6109   44.3561   44.3561  _C3    1             0.000000
   1598  _C3       13.6109   31.4401   46.0559  _C3    1             0.000000
   1599  _C3       13.6109   33.1399   33.1399  _C3    1             0.000000
   1600  _C3       13.6109   46.0559   31.4401  _C3    1             0.000000
   1601  _H1        7.8762   30.8718   26.9893  _H1    1             0.000000
   1602  _H1       20.7922   33.7082   26.9893  _H1    1             0.000000
   1603  _H1       17.9558   46.6242   26.9893  _H1    1             0.000000
   1604  _H1        5.0398   43.7878   26.9893  _H1    1             0.000000
   1605  _H1        7.8762   46.6242   50.5067  _H1    1             0.000000
   1606  _H1       20.7922   43.7878   50.5067  _H1    1             0.000000
   1607  _H1       17.9558   30.8718   50.5067  _H1    1             0.000000
   1608  _H1        5.0398   33.7082   50.5067  _H1    1             0.000000
   1609  _H1        1.1573   33.7082   30.8718  _H1    1             0.000000
   1610  _H1        1.1573   46.6242   33.7082  _H1    1             0.000000
   1611  _H1        1.1573   43.7878   46.6242  _H1    1             0.000000
   1612  _H1        1.1573   30.8718   43.7878  _H1    1             0.000000
   1613  _H1       24.6747   33.7082   46.6242  _H1    1             0.000000
   1614  _H1       24.6747   46.6242   43.7878  _H1    1             0.000000
   1615  _H1       24.6747   43.7878   30.8718  _H1    1             0.000000
   1616  _H1       24.6747   30.8718   33.7082  _H1    1             0.000000
   1617  _H1       17.9558   26.9893   30.8718  _H1    1             0.000000
   1618  _H1        5.0398   26.9893   33.7082  _H1    1             0.000000
   1619  _H1        7.8762   26.9893   46.6242  _H1    1             0.000000
   1620  _H1       20.7922   26.9893   43.7878  _H1    1             0.000000
   1621  _H1       17.9558   50.5067   46.6242  _H1    1             0.000000
   1622  _H1        5.0398   50.5067   43.7878  _H1    1             0.000000
   1623  _H1        7.8762   50.5067   30.8718  _H1    1             0.000000
   1624  _H1       20.7922   50.5067   33.7082  _H1    1             0.000000
   1625  _H1       17.9558   46.6242   50.5067  _H1    1             0.000000
   1626  _H1        5.0398   43.7878   50.5067  _H1    1             0.000000
   1627  _H1        7.8762   30.8718   50.5067  _H1    1             0.000000
   1628  _H1       20.7922   33.7082   50.5067  _H1    1             0.000000
   1629  _H1       17.9558   30.8718   26.9893  _H1    1             0.000000
   1630  _H1        5.0398   33.7082   26.9893  _H1    1             0.000000
   1631  _H1        7.8762   46.6242   26.9893  _H1    1             0.000000
   1632  _H1       20.7922   43.7878   26.9893  _H1    1             0.000000
   1633  _H1       24.6747   43.7878   46.6242  _H1    1             0.000000
   1634  _H1       24.6747   30.8718   43.7878  _H1    1             0.000000
   1635  _H1       24.6747   33.7082   30.8718  _H1    1             0.000000
   1636  _H1       24.6747   46.6242   33.7082  _H1    1             0.000000
   1637  _H1        1.1573   43.7878   30.8718  _H1    1             0.000000
   1638  _H1        1.1573   30.8718   33.7082  _H1    1             0.000000
   1639  _H1        1.1573   33.7082   46.6242  _H1    1             0.000000
   1640  _H1        1.1573   46.6242   43.7878  _H1    1             0.000000
   1641  _H1        7.8762   50.5067   46.6242  _H1    1             0.000000
   1642  _H1       20.7922   50.5067   43.7878  _H1    1             0.000000
   1643  _H1       17.9558   50.5067   30.8718  _H1    1             0.000000
   1644  _H1        5.0398   50.5067   33.7082  _H1    1             0.000000
   1645  _H1        7.8762   26.9893   30.8718  _H1    1             0.000000
   1646  _H1       20.7922   26.9893   33.7082  _H1    1             0.000000
   1647  _H1       17.9558   26.9893   46.6242  _H1    1             0.000000
   1648  _H1        5.0398   26.9893   43.7878  _H1    1             0.000000
   1649  _H1        7.8762   43.7878   39.9053  _H1    1             0.000000
   1650  _H1       20.7922   46.6242   39.9053  _H1    1             0.000000
   1651  _H1       17.9558   33.7082   39.9053  _H1    1             0.000000
   1652  _H1        5.0398   30.8718   39.9053  _H1    1             0.000000
   1653  _H1        7.8762   33.7082   37.5907  _H1    1             0.000000
   1654  _H1       20.7922   30.8718   37.5907  _H1    1             0.000000
   1655  _H1       17.9558   43.7878   37.5907  _H1    1             0.000000
   1656  _H1        5.0398   46.6242   37.5907  _H1    1             0.000000
   1657  _H1       17.9558   39.9053   43.7878  _H1    1             0.000000
   1658  _H1        5.0398   39.9053   46.6242  _H1    1             0.000000
   1659  _H1        7.8762   39.9053   33.7082  _H1    1             0.000000
   1660  _H1       20.7922   39.9053   30.8718  _H1    1             0.000000
   1661  _H1       17.9558   37.5907   33.7082  _H1    1             0.000000
   1662  _H1        5.0398   37.5907   30.8718  _H1    1             0.000000
   1663  _H1        7.8762   37.5907   43.7878  _H1    1             0.000000
   1664  _H1       20.7922   37.5907   46.6242  _H1    1             0.000000
   1665  _H1       17.9558   33.7082   37.5907  _H1    1             0.000000
   1666  _H1        5.0398   30.8718   37.5907  _H1    1             0.000000
   1667  _H1        7.8762   43.7878   37.5907  _H1    1             0.000000
   1668  _H1       20.7922   46.6242   37.5907  _H1    1             0.000000
   1669  _H1       17.9558   43.7878   39.9053  _H1    1             0.000000
   1670  _H1        5.0398   46.6242   39.9053  _H1    1             0.000000
   1671  _H1        7.8762   33.7082   39.9053  _H1    1             0.000000
   1672  _H1       20.7922   30.8718   39.9053  _H1    1             0.000000
   1673  _H1        7.8762   37.5907   33.7082  _H1    1             0.000000
   1674  _H1       20.7922   37.5907   30.8718  _H1    1             0.000000
   1675  _H1       17.9558   37.5907   43.7878  _H1    1             0.000000
   1676  _H1        5.0398   37.5907   46.6242  _H1    1             0.000000
   1677  _H1        7.8762   39.9053   43.7878  _H1    1             0.000000
   1678  _H1       20.7922   39.9053   46.6242  _H1    1             0.000000
   1679  _H1       17.9558   39.9053   33.7082  _H1    1             0.000000
   1680  _H1        5.0398   39.9053   30.8718  _H1    1             0.000000
   1681  _H1       14.0733   33.7082   43.7878  _H1    1             0.000000
   1682  _H1       14.0733   46.6242   46.6242  _H1    1             0.000000
   1683  _H1       14.0733   43.7878   33.7082  _H1    1             0.000000
   1684  _H1       14.0733   30.8718   30.8718  _H1    1             0.000000
   1685  _H1       11.7587   33.7082   33.7082  _H1    1             0.000000
   1686  _H1       11.7587   46.6242   30.8718  _H1    1             0.000000
   1687  _H1       11.7587   43.7878   43.7878  _H1    1             0.000000
   1688  _H1       11.7587   30.8718   46.6242  _H1    1             0.000000
   1689  _H1       11.7587   43.7878   33.7082  _H1    1             0.000000
   1690  _H1       11.7587   30.8718   30.8718  _H1    1             0.000000
   1691  _H1       11.7587   33.7082   43.7878  _H1    1             0.000000
   1692  _H1       11.7587   46.6242   46.6242  _H1    1             0.000000
   1693  _H1       14.0733   43.7878   43.7878  _H1    1             0.000000
   1694  _H1       14.0733   30.8718   46.6242  _H1    1             0.000000
   1695  _H1       14.0733   33.7082   33.7082  _H1    1             0.000000
   1696  _H1       14.0733   46.6242   30.8718  _H1    1             0.000000
   1697 _Zn1       33.4111    5.3369    5.3369 _Zn1    1             0.000000
   1698 _Zn1       46.3271    7.5791    5.3369 _Zn1    1             0.000000
   1699 _Zn1       44.0849   20.4951    5.3369 _Zn1    1             0.000000
   1700 _Zn1       31.1689   18.2529    5.3369 _Zn1    1             0.000000
   1701 _Zn1       33.4111   20.4951   20.4951 _Zn1    1             0.000000
   1702 _Zn1       46.3271   18.2529   20.4951 _Zn1    1             0.000000
   1703 _Zn1       44.0849    5.3369   20.4951 _Zn1    1             0.000000
   1704 _Zn1       31.1689    7.5791   20.4951 _Zn1    1             0.000000
   1705 _Zn1       31.1689    7.5791    5.3369 _Zn1    1             0.000000
   1706 _Zn1       31.1689   20.4951    7.5791 _Zn1    1             0.000000
   1707 _Zn1       31.1689   18.2529   20.4951 _Zn1    1             0.000000
   1708 _Zn1       31.1689    5.3369   18.2529 _Zn1    1             0.000000
   1709 _Zn1       46.3271    7.5791   20.4951 _Zn1    1             0.000000
   1710 _Zn1       46.3271   20.4951   18.2529 _Zn1    1             0.000000
   1711 _Zn1       46.3271   18.2529    5.3369 _Zn1    1             0.000000
   1712 _Zn1       46.3271    5.3369    7.5791 _Zn1    1             0.000000
   1713 _Zn1       44.0849    5.3369    5.3369 _Zn1    1             0.000000
   1714 _Zn1       31.1689    5.3369    7.5791 _Zn1    1             0.000000
   1715 _Zn1       33.4111    5.3369   20.4951 _Zn1    1             0.000000
   1716 _Zn1       46.3271    5.3369   18.2529 _Zn1    1             0.000000
   1717 _Zn1       44.0849   20.4951   20.4951 _Zn1    1             0.000000
   1718 _Zn1       31.1689   20.4951   18.2529 _Zn1    1             0.000000
   1719 _Zn1       33.4111   20.4951    5.3369 _Zn1    1             0.000000
   1720 _Zn1       46.3271   20.4951    7.5791 _Zn1    1             0.000000
   1721 _Zn1       33.4111   18.2529   18.2529 _Zn1    1             0.000000
   1722 _Zn1       44.0849    7.5791   18.2529 _Zn1    1             0.000000
   1723 _Zn1       33.4111    7.5791    7.5791 _Zn1    1             0.000000
   1724 _Zn1       44.0849   18.2529    7.5791 _Zn1    1             0.000000
   1725 _Zn1       44.0849   18.2529   18.2529 _Zn1    1             0.000000
   1726 _Zn1       33.4111   18.2529    7.5791 _Zn1    1             0.000000
   1727 _Zn1       44.0849    7.5791    7.5791 _Zn1    1             0.000000
   1728 _Zn1       33.4111    7.5791   18.2529 _Zn1    1             0.000000
   1729  _O1       32.2900    6.4580    6.4580  _O1    1             0.000000
   1730  _O1       45.2060    6.4580    6.4580  _O1    1             0.000000
   1731  _O1       45.2060   19.3740    6.4580  _O1    1             0.000000
   1732  _O1       32.2900   19.3740    6.4580  _O1    1             0.000000
   1733  _O1       32.2900   19.3740   19.3740  _O1    1             0.000000
   1734  _O1       45.2060   19.3740   19.3740  _O1    1             0.000000
   1735  _O1       45.2060    6.4580   19.3740  _O1    1             0.000000
   1736  _O1       32.2900    6.4580   19.3740  _O1    1             0.000000
   1737  _O2       33.1140    5.6340    3.4615  _O2    1             0.000000
   1738  _O2       46.0300    7.2820    3.4615  _O2    1             0.000000
   1739  _O2       44.3820   20.1980    3.4615  _O2    1             0.000000
   1740  _O2       31.4660   18.5500    3.4615  _O2    1             0.000000
   1741  _O2       33.1140   20.1980   22.3705  _O2    1             0.000000
   1742  _O2       46.0300   18.5500   22.3705  _O2    1             0.000000
   1743  _O2       44.3820    5.6340   22.3705  _O2    1             0.000000
   1744  _O2       31.4660    7.2820   22.3705  _O2    1             0.000000
   1745  _O2       29.2935    7.2820    5.6340  _O2    1             0.000000
   1746  _O2       29.2935   20.1980    7.2820  _O2    1             0.000000
   1747  _O2       29.2935   18.5500   20.1980  _O2    1             0.000000
   1748  _O2       29.2935    5.6340   18.5500  _O2    1             0.000000
   1749  _O2       48.2025    7.2820   20.1980  _O2    1             0.000000
   1750  _O2       48.2025   20.1980   18.5500  _O2    1             0.000000
   1751  _O2       48.2025   18.5500    5.6340  _O2    1             0.000000
   1752  _O2       48.2025    5.6340    7.2820  _O2    1             0.000000
   1753  _O2       44.3820    3.4615    5.6340  _O2    1             0.000000
   1754  _O2       31.4660    3.4615    7.2820  _O2    1             0.000000
   1755  _O2       33.1140    3.4615   20.1980  _O2    1             0.000000
   1756  _O2       46.0300    3.4615   18.5500  _O2    1             0.000000
   1757  _O2       44.3820   22.3705   20.1980  _O2    1             0.000000
   1758  _O2       31.4660   22.3705   18.5500  _O2    1             0.000000
   1759  _O2       33.1140   22.3705    5.6340  _O2    1             0.000000
   1760  _O2       46.0300   22.3705    7.2820  _O2    1             0.000000
   1761  _O2       44.3820   20.1980   22.3705  _O2    1             0.000000
   1762  _O2       31.4660   18.5500   22.3705  _O2    1             0.000000
   1763  _O2       33.1140    5.6340   22.3705  _O2    1             0.000000
   1764  _O2       46.0300    7.2820   22.3705  _O2    1             0.000000
   1765  _O2       44.3820    5.6340    3.4615  _O2    1             0.000000
   1766  _O2       31.4660    7.2820    3.4615  _O2    1             0.000000
   1767  _O2       33.1140   20.1980    3.4615  _O2    1             0.000000
   1768  _O2       46.0300   18.5500    3.4615  _O2    1             0.000000
   1769  _O2       48.2025   18.5500   20.1980  _O2    1             0.000000
   1770  _O2       48.2025    5.6340   18.5500  _O2    1             0.000000
   1771  _O2       48.2025    7.2820    5.6340  _O2    1             0.000000
   1772  _O2       48.2025   20.1980    7.2820  _O2    1             0.000000
   1773  _O2       29.2935   18.5500    5.6340  _O2    1             0.000000
   1774  _O2       29.2935    5.6340    7.2820  _O2    1             0.000000
   1775  _O2       29.2935    7.2820   20.1980  _O2    1             0.000000
   1776  _O2       29.2935   20.1980   18.5500  _O2    1             0.000000
   1777  _O2       33.1140   22.3705   20.1980  _O2    1             0.000000
   1778  _O2       46.0300   22.3705   18.5500  _O2    1             0.000000
   1779  _O2       44.3820   22.3705    5.6340  _O2    1             0.000000
   1780  _O2       31.4660   22.3705    7.2820  _O2    1             0.000000
   1781  _O2       33.1140    3.4615    5.6340  _O2    1             0.000000
   1782  _O2       46.0300    3.4615    7.2820  _O2    1             0.000000
   1783  _O2       44.3820    3.4615   20.1980  _O2    1             0.000000
   1784  _O2       31.4660    3.4615   18.5500  _O2    1             0.000000
   1785  _O2       33.1140   18.5500   16.3775  _O2    1             0.000000
   1786  _O2       46.0300   20.1980   16.3775  _O2    1             0.000000
   1787  _O2       44.3820    7.2820   16.3775  _O2    1             0.000000
   1788  _O2       31.4660    5.6340   16.3775  _O2    1             0.000000
   1789  _O2       33.1140    7.2820    9.4545  _O2    1             0.000000
   1790  _O2       46.0300    5.6340    9.4545  _O2    1             0.000000
   1791  _O2       44.3820   18.5500    9.4545  _O2    1             0.000000
   1792  _O2       31.4660   20.1980    9.4545  _O2    1             0.000000
   1793  _O2       44.3820   16.3775   18.5500  _O2    1             0.000000
   1794  _O2       31.4660   16.3775   20.1980  _O2    1             0.000000
   1795  _O2       33.1140   16.3775    7.2820  _O2    1             0.000000
   1796  _O2       46.0300   16.3775    5.6340  _O2    1             0.000000
   1797  _O2       44.3820    9.4545    7.2820  _O2    1             0.000000
   1798  _O2       31.4660    9.4545    5.6340  _O2    1             0.000000
   1799  _O2       33.1140    9.4545   18.5500  _O2    1             0.000000
   1800  _O2       46.0300    9.4545   20.1980  _O2    1             0.000000
   1801  _O2       44.3820    7.2820    9.4545  _O2    1             0.000000
   1802  _O2       31.4660    5.6340    9.4545  _O2    1             0.000000
   1803  _O2       33.1140   18.5500    9.4545  _O2    1             0.000000
   1804  _O2       46.0300   20.1980    9.4545  _O2    1             0.000000
   1805  _O2       44.3820   18.5500   16.3775  _O2    1             0.000000
   1806  _O2       31.4660   20.1980   16.3775  _O2    1             0.000000
   1807  _O2       33.1140    7.2820   16.3775  _O2    1             0.000000
   1808  _O2       46.0300    5.6340   16.3775  _O2    1             0.000000
   1809  _O2       33.1140    9.4545    7.2820  _O2    1             0.000000
   1810  _O2       46.0300    9.4545    5.6340  _O2    1             0.000000
   1811  _O2       44.3820    9.4545   18.5500  _O2    1             0.000000
   1812  _O2       31.4660    9.4545   20.1980  _O2    1             0.000000
   1813  _O2       33.1140   16.3775   18.5500  _O2    1             0.000000
   1814  _O2       46.0300   16.3775   20.1980  _O2    1             0.000000
   1815  _O2       44.3820   16.3775    7.2820  _O2    1             0.000000
   1816  _O2       31.4660   16.3775    5.6340  _O2    1             0.000000
   1817  _O2       42.2095    7.2820   18.5500  _O2    1             0.000000
   1818  _O2       42.2095   20.1980   20.1980  _O2    1             0.000000
   1819  _O2       42.2095   18.5500    7.2820  _O2    1             0.000000
   1820  _O2       42.2095    5.6340    5.6340  _O2    1             0.000000
   1821  _O2       35.2865    7.2820    7.2820  _O2    1             0.000000
   1822  _O2       35.2865   20.1980    5.6340  _O2    1             0.000000
   1823  _O2       35.2865   18.5500   18.5500  _O2    1             0.000000
   1824  _O2       35.2865    5.6340   20.1980  _O2    1             0.000000
   1825  _O2       35.2865   18.5500    7.2820  _O2    1             0.000000
   1826  _O2       35.2865    5.6340    5.6340  _O2    1             0.000000
   1827  _O2       35.2865    7.2820   18.5500  _O2    1             0.000000
   1828  _O2       35.2865   20.1980   20.1980  _O2    1             0.000000
   1829  _O2       42.2095   18.5500   18.5500  _O2    1             0.000000
   1830  _O2       42.2095    5.6340   20.1980  _O2    1             0.000000
   1831  _O2       42.2095    7.2820    7.2820  _O2    1             0.000000
   1832  _O2       42.2095   20.1980    5.6340  _O2    1             0.000000
   1833  _C1       32.2900    6.4580    2.8751  _C1    1             0.000000
   1834  _C1       45.2060    6.4580    2.8751  _C1    1             0.000000
   1835  _C1       45.2060   19.3740    2.8751  _C1    1             0.000000
   1836  _C1       32.2900   19.3740    2.8751  _C1    1             0.000000
   1837  _C1       32.2900   19.3740   22.9569  _C1    1             0.000000
   1838  _C1       45.2060   19.3740   22.9569  _C1    1             0.000000
   1839  _C1       45.2060    6.4580   22.9569  _C1    1             0.000000
   1840  _C1       32.2900    6.4580   22.9569  _C1    1             0.000000
   1841  _C1       28.7071    6.4580    6.4580  _C1    1             0.000000
   1842  _C1       28.7071   19.3740    6.4580  _C1    1             0.000000
   1843  _C1       28.7071   19.3740   19.3740  _C1    1             0.000000
   1844  _C1       28.7071    6.4580   19.3740  _C1    1             0.000000
   1845  _C1       48.7889    6.4580   19.3740  _C1    1             0.000000
   1846  _C1       48.7889   19.3740   19.3740  _C1    1             0.000000
   1847  _C1       48.7889   19.3740    6.4580  _C1    1             0.000000
   1848  _C1       48.7889    6.4580    6.4580  _C1    1             0.000000
   1849  _C1       45.2060    2.8751    6.4580  _C1    1             0.000000
   1850  _C1       32.2900    2.8751    6.4580  _C1    1             0.000000
   1851  _C1       32.2900    2.8751   19.3740  _C1    1             0.000000
   1852  _C1       45.2060    2.8751   19.3740  _C1    1             0.000000
   1853  _C1       45.2060   22.9569   19.3740  _C1    1             0.000000
   1854  _C1       32.2900   22.9569   19.3740  _C1    1             0.000000
   1855  _C1       32.2900   22.9569    6.4580  _C1    1             0.000000
   1856  _C1       45.2060   22.9569    6.4580  _C1    1             0.000000
   1857  _C1       32.2900   19.3740   15.7911  _C1    1             0.000000
   1858  _C1       45.2060   19.3740   15.7911  _C1    1             0.000000
   1859  _C1       45.2060    6.4580   15.7911  _C1    1             0.000000
   1860  _C1       32.2900    6.4580   15.7911  _C1    1             0.000000
   1861  _C1       32.2900    6.4580   10.0409  _C1    1             0.000000
   1862  _C1       45.2060    6.4580   10.0409  _C1    1             0.000000
   1863  _C1       45.2060   19.3740   10.0409  _C1    1             0.000000
   1864  _C1       32.2900   19.3740   10.0409  _C1    1             0.000000
   1865  _C1       45.2060   15.7911   19.3740  _C1    1             0.000000
   1866  _C1       32.2900   15.7911   19.3740  _C1    1             0.000000
   1867  _C1       32.2900   15.7911    6.4580  _C1    1             0.000000
   1868  _C1       45.2060   15.7911    6.4580  _C1    1             0.000000
   1869  _C1       45.2060   10.0409    6.4580  _C1    1             0.000000
   1870  _C1       32.2900   10.0409    6.4580  _C1    1             0.000000
   1871  _C1       32.2900   10.0409   19.3740  _C1    1             0.000000
   1872  _C1       45.2060   10.0409   19.3740  _C1    1             0.000000
   1873  _C1       41.6231    6.4580   19.3740  _C1    1             0.000000
   1874  _C1       41.6231   19.3740   19.3740  _C1    1             0.000000
   1875  _C1       41.6231   19.3740    6.4580  _C1    1             0.000000
   1876  _C1       41.6231    6.4580    6.4580  _C1    1             0.000000
   1877  _C1       35.8729    6.4580    6.4580  _C1    1             0.000000
   1878  _C1       35.8729   19.3740    6.4580  _C1    1             0.000000
   1879  _C1       35.8729   19.3740   19.3740  _C1    1             0.000000
   1880  _C1       35.8729    6.4580   19.3740  _C1    1             0.000000
   1881  _C2       32.2900    6.4580    1.3898  _C2    1             0.000000
   1882  _C2       45.2060    6.4580    1.3898  _C2    1             0.000000
   1883  _C2       45.2060   19.3740    1.3898  _C2    1             0.000000
   1884  _C2       32.2900   19.3740    1.3898  _C2    1             0.000000
   1885  _C2       32.2900   19.3740   24.4422  _C2    1             0.000000
   1886  _C2       45.2060   19.3740   24.4422  _C2    1             0.000000
   1887  _C2       45.2060    6.4580   24.4422  _C2    1             0.000000
   1888  _C2       32.2900    6.4580   24.4422  _C2    1             0.000000
   1889  _C2       27.2218    6.4580    6.4580  _C2    1             0.000000
   1890  _C2       27.2218   19.3740    6.4580  _C2    1             0.000000
   1891  _C2       27.2218   19.3740   19.3740  _C2    1             0.000000
   1892  _C2       27.2218    6.4580   19.3740  _C2    1             0.000000
   1893  _C2       50.2742    6.4580   19.3740  _C2    1             0.000000
   1894  _C2       50.2742   19.3740   19.3740  _C2    1             0.000000
   1895  _C2       50.2742   19.3740    6.4580  _C2    1             0.000000
   1896  _C2       50.2742    6.4580    6.4580  _C2    1             0.000000
   1897  _C2       45.2060    1.3898    6.4580  _C2    1             0.000000
   1898  _C2       32.2900    1.3898    6.4580  _C2    1             0.000000
   1899  _C2       32.2900    1.3898   19.3740  _C2    1             0.000000
   1900  _C2       45.2060    1.3898   19.3740  _C2    1             0.000000
   1901  _C2       45.2060   24.4422   19.3740  _C2    1             0.000000
   1902  _C2       32.2900   24.4422   19.3740  _C2    1             0.000000
   1903  _C2       32.2900   24.4422    6.4580  _C2    1             0.000000
   1904  _C2       45.2060   24.4422    6.4580  _C2    1             0.000000
   1905  _C2       32.2900   19.3740   14.3058  _C2    1             0.000000
   1906  _C2       45.2060   19.3740   14.3058  _C2    1             0.000000
   1907  _C2       45.2060    6.4580   14.3058  _C2    1             0.000000
   1908  _C2       32.2900    6.4580   14.3058  _C2    1             0.000000
   1909  _C2       32.2900    6.4580   11.5262  _C2    1             0.000000
   1910  _C2       45.2060    6.4580   11.5262  _C2    1             0.000000
   1911  _C2       45.2060   19.3740   11.5262  _C2    1             0.000000
   1912  _C2       32.2900   19.3740   11.5262  _C2    1             0.000000
   1913  _C2       45.2060   14.3058   19.3740  _C2    1             0.000000
   1914  _C2       32.2900   14.3058   19.3740  _C2    1             0.000000
   1915  _C2       32.2900   14.3058    6.4580  _C2    1             0.000000
   1916  _C2       45.2060   14.3058    6.4580  _C2    1             0.000000
   1917  _C2       45.2060   11.5262    6.4580  _C2    1             0.000000
   1918  _C2       32.2900   11.5262    6.4580  _C2    1             0.000000
   1919  _C2       32.2900   11.5262   19.3740  _C2    1             0.000000
   1920  _C2       45.2060   11.5262   19.3740  _C2    1             0.000000
   1921  _C2       40.1378    6.4580   19.3740  _C2    1             0.000000
   1922  _C2       40.1378   19.3740   19.3740  _C2    1             0.000000
   1923  _C2       40.1378   19.3740    6.4580  _C2    1             0.000000
   1924  _C2       40.1378    6.4580    6.4580  _C2    1             0.000000
   1925  _C2       37.3582    6.4580    6.4580  _C2    1             0.000000
   1926  _C2       37.3582   19.3740    6.4580  _C2    1             0.000000
   1927  _C2       37.3582   19.3740   19.3740  _C2    1             0.000000
   1928  _C2       37.3582    6.4580   19.3740  _C2    1             0.000000
   1929  _C3       33.1399    5.6081    0.6949  _C3    1             0.000000
   1930  _C3       46.0559    7.3079    0.6949  _C3    1             0.000000
   1931  _C3       44.3561   20.2239    0.6949  _C3    1             0.000000
   1932  _C3       31.4401   18.5241    0.6949  _C3    1             0.000000
   1933  _C3       33.1399   20.2239   25.1371  _C3    1             0.000000
   1934  _C3       46.0559   18.5241   25.1371  _C3    1             0.000000
   1935  _C3       44.3561    5.6081   25.1371  _C3    1             0.000000
   1936  _C3       31.4401    7.3079   25.1371  _C3    1             0.000000
   1937  _C3       26.5269    7.3079    5.6081  _C3    1             0.000000
   1938  _C3       26.5269   20.2239    7.3079  _C3    1             0.000000
   1939  _C3       26.5269   18.5241   20.2239  _C3    1             0.000000
   1940  _C3       26.5269    5.6081   18.5241  _C3    1             0.000000
   1941  _C3       50.9691    7.3079   20.2239  _C3    1             0.000000
   1942  _C3       50.9691   20.2239   18.5241  _C3    1             0.000000
   1943  _C3       50.9691   18.5241    5.6081  _C3    1             0.000000
   1944  _C3       50.9691    5.6081    7.3079  _C3    1             0.000000
   1945  _C3       44.3561    0.6949    5.6081  _C3    1             0.000000
   1946  _C3       31.4401    0.6949    7.3079  _C3    1             0.000000
   1947  _C3       33.1399    0.6949   20.2239  _C3    1             0.000000
   1948  _C3       46.0559    0.6949   18.5241  _C3    1             0.000000
   1949  _C3       44.3561   25.1371   20.2239  _C3    1             0.000000
   1950  _C3       31.4401   25.1371   18.5241  _C3    1             0.000000
   1951  _C3       33.1399   25.1371    5.6081  _C3    1             0.000000
   1952  _C3       46.0559   25.1371    7.3079  _C3    1             0.000000
   1953  _C3       44.3561   20.2239   25.1371  _C3    1             0.000000
   1954  _C3       31.4401   18.5241   25.1371  _C3    1             0.000000
   1955  _C3       33.1399    5.6081   25.1371  _C3    1             0.000000
   1956  _C3       46.0559    7.3079   25.1371  _C3    1             0.000000
   1957  _C3       44.3561    5.6081    0.6949  _C3    1             0.000000
   1958  _C3       31.4401    7.3079    0.6949  _C3    1             0.000000
   1959  _C3       33.1399   20.2239    0.6949  _C3    1             0.000000
   1960  _C3       46.0559   18.5241    0.6949  _C3    1             0.000000
   1961  _C3       50.9691   18.5241   20.2239  _C3    1             0.000000
   1962  _C3       50.9691    5.6081   18.5241  _C3    1             0.000000
   1963  _C3       50.9691    7.3079    5.6081  _C3    1             0.000000
   1964  _C3       50.9691   20.2239    7.3079  _C3    1             0.000000
   1965  _C3       26.5269   18.5241    5.6081  _C3    1             0.000000
   1966  _C3       26.5269    5.6081    7.3079  _C3    1             0.000000
   1967  _C3       26.5269    7.3079   20.2239  _C3    1             0.000000
   1968  _C3       26.5269   20.2239   18.5241  _C3    1             0.000000
   1969  _C3       33.1399   25.1371   20.2239  _C3    1             0.000000
   1970  _C3       46.0559   25.1371   18.5241  _C3    1             0.000000
   1971  _C3       44.3561   25.1371    5.6081  _C3    1             0.000000
   1972  _C3       31.4401   25.1371    7.3079  _C3    1             0.000000
   1973  _C3       33.1399    0.6949    5.6081  _C3    1             0.000000
   1974  _C3       46.0559    0.6949    7.3079  _C3    1             0.000000
   1975  _C3       44.3561    0.6949   20.2239  _C3    1             0.000000
   1976  _C3       31.4401    0.6949   18.5241  _C3    1             0.000000
   1977  _C3       33.1399   18.5241   13.6109  _C3    1             0.000000
   1978  _C3       46.0559   20.2239   13.6109  _C3    1             0.000000
   1979  _C3       44.3561    7.3079   13.6109  _C3    1             0.000000
   1980  _C3       31.4401    5.6081   13.6109  _C3    1             0.000000
   1981  _C3       33.1399    7.3079   12.2211  _C3    1             0.000000
   1982  _C3       46.0559    5.6081   12.2211  _C3    1             0.000000
   1983  _C3       44.3561   18.5241   12.2211  _C3    1             0.000000
   1984  _C3       31.4401   20.2239   12.2211  _C3    1             0.000000
   1985  _C3       44.3561   13.6109   18.5241  _C3    1             0.000000
   1986  _C3       31.4401   13.6109   20.2239  _C3    1             0.000000
   1987  _C3       33.1399   13.6109    7.3079  _C3    1             0.000000
   1988  _C3       46.0559   13.6109    5.6081  _C3    1             0.000000
   1989  _C3       44.3561   12.2211    7.3079  _C3    1             0.000000
   1990  _C3       31.4401   12.2211    5.6081  _C3    1             0.000000
   1991  _C3       33.1399   12.2211   18.5241  _C3    1             0.000000
   1992  _C3       46.0559   12.2211   20.2239  _C3    1             0.000000
   1993  _C3       44.3561    7.3079   12.2211  _C3    1             0.000000
   1994  _C3       31.4401    5.6081   12.2211  _C3    1             0.000000
   1995  _C3       33.1399   18.5241   12.2211  _C3    1             0.000000
   1996  _C3       46.0559   20.2239   12.2211  _C3    1             0.000000
   1997  _C3       44.3561   18.5241   13.6109  _C3    1             0.000000
   1998  _C3       31.4401   20.2239   13.6109  _C3    1             0.000000
   1999  _C3       33.1399    7.3079   13.6109  _C3    1             0.000000
   2000  _C3       46.0559    5.6081   13.6109  _C3    1             0.000000
   2001  _C3       33.1399   12.2211    7.3079  _C3    1             0.000000
   2002  _C3       46.0559   12.2211    5.6081  _C3    1             0.000000
   2003  _C3       44.3561   12.2211   18.5241  _C3    1             0.000000
   2004  _C3       31.4401   12.2211   20.2239  _C3    1             0.000000
   2005  _C3       33.1399   13.6109   18.5241  _C3    1             0.000000
   2006  _C3       46.0559   13.6109   20.2239  _C3    1             0.000000
   2007  _C3       44.3561   13.6109    7.3079  _C3    1             0.000000
   2008  _C3       31.4401   13.6109    5.6081  _C3    1             0.000000
   2009  _C3       39.4429    7.3079   18.5241  _C3    1             0.000000
   2010  _C3       39.4429   20.2239   20.2239  _C3    1             0.000000
   2011  _C3       39.4429   18.5241    7.3079  _C3    1             0.000000
   2012  _C3       39.4429    5.6081    5.6081  _C3    1             0.000000
   2013  _C3       38.0531    7.3079    7.3079  _C3    1             0.000000
   2014  _C3       38.0531   20.2239    5.6081  _C3    1             0.000000
   2015  _C3       38.0531   18.5241   18.5241  _C3    1             0.000000
   2016  _C3       38.0531    5.6081   20.2239  _C3    1             0.000000
   2017  _C3       38.0531   18.5241    7.3079  _C3    1             0.000000
   2018  _C3       38.0531    5.6081    5.6081  _C3    1             0.000000
   2019  _C3       38.0531    7.3079   18.5241  _C3    1             0.000000
   2020  _C3       38.0531   20.2239   20.2239  _C3    1             0.000000
   2021  _C3       39.4429   18.5241   18.5241  _C3    1             0.000000
   2022  _C3       39.4429    5.6081   20.2239  _C3    1             0.000000
   2023  _C3       39.4429    7.3079    7.3079  _C3    1             0.000000
   2024  _C3       39.4429   20.2239    5.6081  _C3    1             0.000000
   2025  _H1       33.7082    5.0398    1.1573  _H1    1             0.000000
   2026  _H1       46.6242    7.8762    1.1573  _H1    1             0.000000
   2027  _H1       43.7878   20.7922    1.1573  _H1    1             0.000000
   2028  _H1       30.8718   17.9558    1.1573  _H1    1             0.000000
   2029  _H1       33.7082   20.7922   24.6747  _H1    1             0.000000
   2030  _H1       46.6242   17.9558   24.6747  _H1    1             0.000000
   2031  _H1       43.7878    5.0398   24.6747  _H1    1             0.000000
   2032  _H1       30.8718    7.8762   24.6747  _H1    1             0.000000
   2033  _H1       26.9893    7.8762    5.0398  _H1    1             0.000000
   2034  _H1       26.9893   20.7922    7.8762  _H1    1             0.000000
   2035  _H1       26.9893   17.9558   20.7922  _H1    1             0.000000
   2036  _H1       26.9893    5.0398   17.9558  _H1    1             0.000000
   2037  _H1       50.5067    7.8762   20.7922  _H1    1             0.000000
   2038  _H1       50.5067   20.7922   17.9558  _H1    1             0.000000
   2039  _H1       50.5067   17.9558    5.0398  _H1    1             0.000000
   2040  _H1       50.5067    5.0398    7.8762  _H1    1             0.000000
   2041  _H1       43.7878    1.1573    5.0398  _H1    1             0.000000
   2042  _H1       30.8718    1.1573    7.8762  _H1    1             0.000000
   2043  _H1       33.7082    1.1573   20.7922  _H1    1             0.000000
   2044  _H1       46.6242    1.1573   17.9558  _H1    1             0.000000
   2045  _H1       43.7878   24.6747   20.7922  _H1    1             0.000000
   2046  _H1       30.8718   24.6747   17.9558  _H1    1             0.000000
   2047  _H1       33.7082   24.6747    5.0398  _H1    1             0.000000
   2048  _H1       46.6242   24.6747    7.8762  _H1    1             0.000000
   2049  _H1       43.7878   20.7922   24.6747  _H1    1             0.000000
   2050  _H1       30.8718   17.9558   24.6747  _H1    1             0.000000
   2051  _H1       33.7082    5.0398   24.6747  _H1    1             0.000000
   2052  _H1       46.6242    7.8762   24.6747  _H1    1             0.000000
   2053  _H1       43.7878    5.0398    1.1573  _H1    1             0.000000
   2054  _H1       30.8718    7.8762    1.1573  _H1    1             0.000000
   2055  _H1       33.7082   20.7922    1.1573  _H1    1             0.000000
   2056  _H1       46.6242   17.9558    1.1573  _H1    1             0.000000
   2057  _H1       50.5067   17.9558   20.7922  _H1    1             0.000000
   2058  _H1       50.5067    5.0398   17.9558  _H1    1             0.000000
   2059  _H1       50.5067    7.8762    5.0398  _H1    1             0.000000
   2060  _H1       50.5067   20.7922    7.8762  _H1    1             0.000000
   2061  _H1       26.9893   17.9558    5.0398  _H1    1             0.000000
   2062  _H1       26.9893    5.0398    7.8762  _H1    1             0.000000
   2063  _H1       26.9893    7.8762   20.7922  _H1    1             0.000000
   2064  _H1       26.9893   20.7922   17.9558  _H1    1             0.000000
   2065  _H1       33.7082   24.6747   20.7922  _H1    1             0.000000
   2066  _H1       46.6242   24.6747   17.9558  _H1    1             0.000000
   2067  _H1       43.7878   24.6747    5.0398  _H1    1             0.000000
   2068  _H1       30.8718   24.6747    7.8762  _H1    1             0.000000
   2069  _H1       33.7082    1.1573    5.0398  _H1    1             0.000000
   2070  _H1       46.6242    1.1573    7.8762  _H1    1             0.000000
   2071  _H1       43.7878    1.1573   20.7922  _H1    1             0.000000
   2072  _H1       30.8718    1.1573   17.9558  _H1    1             0.000000
   2073  _H1       33.7082   17.9558   14.0733  _H1    1             0.000000
   2074  _H1       46.6242   20.7922   14.0733  _H1    1             0.000000
   2075  _H1       43.7878    7.8762   14.0733  _H1    1             0.000000
   2076  _H1       30.8718    5.0398   14.0733  _H1    1             0.000000
   2077  _H1       33.7082    7.8762   11.7587  _H1    1             0.000000
   2078  _H1       46.6242    5.0398   11.7587  _H1    1             0.000000
   2079  _H1       43.7878   17.9558   11.7587  _H1    1             0.000000
   2080  _H1       30.8718   20.7922   11.7587  _H1    1             0.000000
   2081  _H1       43.7878   14.0733   17.9558  _H1    1             0.000000
   2082  _H1       30.8718   14.0733   20.7922  _H1    1             0.000000
   2083  _H1       33.7082   14.0733    7.8762  _H1    1             0.000000
   2084  _H1       46.6242   14.0733    5.0398  _H1    1             0.000000
   2085  _H1       43.7878   11.7587    7.8762  _H1    1             0.000000
   2086  _H1       30.8718   11.7587    5.0398  _H1    1             0.000000
   2087  _H1       33.7082   11.7587   17.9558  _H1    1             0.000000
   2088  _H1       46.6242   11.7587   20.7922  _H1    1             0.000000
   2089  _H1       43.7878    7.8762   11.7587  _H1    1             0.000000
   2090  _H1       30.8718    5.0398   11.7587  _H1    1             0.000000
   2091  _H1       33.7082   17.9558   11.7587  _H1    1             0.000000
   2092  _H1       46.6242   20.7922   11.7587  _H1    1             0.000000
   2093  _H1       43.7878   17.9558   14.0733  _H1    1             0.000000
   2094  _H1       30.8718   20.7922   14.0733  _H1    1             0.000000
   2095  _H1       33.7082    7.8762   14.0733  _H1    1             0.000000
   2096  _H1       46.6242    5.0398   14.0733  _H1    1             0.000000
   2097  _H1       33.7082   11.7587    7.8762  _H1    1             0.000000
   2098  _H1       46.6242   11.7587    5.0398  _H1    1             0.000000
   2099  _H1       43.7878   11.7587   17.9558  _H1    1             0.000000
   2100  _H1       30.8718   11.7587   20.7922  _H1    1             0.000000
   2101  _H1       33.7082   14.0733   17.9558  _H1    1             0.000000
   2102  _H1       46.6242   14.0733   20.7922  _H1    1             0.000000
   2103  _H1       43.7878   14.0733    7.8762  _H1    1             0.000000
   2104  _H1       30.8718   14.0733    5.0398  _H1    1             0.000000
   2105  _H1       39.9053    7.8762   17.9558  _H1    1             0.000000
   2106  _H1       39.9053   20.7922   20.7922  _H1    1             0.000000
   2107  _H1       39.9053   17.9558    7.8762  _H1    1             0.000000
   2108  _H1       39.9053    5.0398    5.0398  _H1    1             0.000000
   2109  _H1       37.5907    7.8762    7.8762  _H1    1             0.000000
   2110  _H1       37.5907   20.7922    5.0398  _H1    1             0.000000
   2111  _H1       37.5907   17.9558   17.9558  _H1    1             0.000000
   2112  _H1       37.5907    5.0398   20.7922  _H1    1             0.000000
   2113  _H1       37.5907   17.9558    7.8762  _H1    1             0.000000
   2114  _H1       37.5907    5.0398    5.0398  _H1    1             0.000000
   2115  _H1       37.5907    7.8762   17.9558  _H1    1             0.000000
   2116  _H1       37.5907   20.7922   20.7922  _H1    1             0.000000
   2117  _H1       39.9053   17.9558   17.9558  _H1    1             0.000000
   2118  _H1       39.9053    5.0398   20.7922  _H1    1             0.000000
   2119  _H1       39.9053    7.8762    7.8762  _H1    1             0.000000
   2120  _H1       39.9053   20.7922    5.0398  _H1    1             0.000000
   2121 _Zn1       33.4111    5.3369   31.1689 _Zn1    1             0.000000
   2122 _Zn1       46.3271    7.5791   31.1689 _Zn1    1             0.000000
   2123 _Zn1       44.0849   20.4951   31.1689 _Zn1    1             0.000000
   2124 _Zn1       31.1689   18.2529   31.1689 _Zn1    1             0.000000
   2125 _Zn1       33.4111   20.4951   46.3271 _Zn1    1             0.000000
   2126 _Zn1       46.3271   18.2529   46.3271 _Zn1    1             0.000000
   2127 _Zn1       44.0849    5.3369   46.3271 _Zn1    1             0.000000
   2128 _Zn1       31.1689    7.5791   46.3271 _Zn1    1             0.000000
   2129 _Zn1       31.1689    7.5791   31.1689 _Zn1    1             0.000000
   2130 _Zn1       31.1689   20.4951   33.4111 _Zn1    1             0.000000
   2131 _Zn1       31.1689   18.2529   46.3271 _Zn1    1             0.000000
   2132 _Zn1       31.1689    5.3369   44.0849 _Zn1    1             0.000000
   2133 _Zn1       46.3271    7.5791   46.3271 _Zn1    1             0.000000
   2134 _Zn1       46.3271   20.4951   44.0849 _Zn1    1             0.000000
   2135 _Zn1       46.3271   18.2529   31.1689 _Zn1    1             0.000000
   2136 _Zn1       46.3271    5.3369   33.4111 _Zn1    1             0.000000
   2137 _Zn1       44.0849    5.3369   31.1689 _Zn1    1             0.000000
   2138 _Zn1       31.1689    5.3369   33.4111 _Zn1    1             0.000000
   2139 _Zn1       33.4111    5.3369   46.3271 _Zn1    1             0.000000
   2140 _Zn1       46.3271    5.3369   44.0849 _Zn1    1             0.000000
   2141 _Zn1       44.0849   20.4951   46.3271 _Zn1    1             0.000000
   2142 _Zn1       31.1689   20.4951   44.0849 _Zn1    1             0.000000
   2143 _Zn1       33.4111   20.4951   31.1689 _Zn1    1             0.000000
   2144 _Zn1       46.3271   20.4951   33.4111 _Zn1    1             0.000000
   2145 _Zn1       33.4111   18.2529   44.0849 _Zn1    1             0.000000
   2146 _Zn1       44.0849    7.5791   44.0849 _Zn1    1             0.000000
   2147 _Zn1       33.4111    7.5791   33.4111 _Zn1    1             0.000000
   2148 _Zn1       44.0849   18.2529   33.4111 _Zn1    1             0.000000
   2149 _Zn1       44.0849   18.2529   44.0849 _Zn1    1             0.000000
   2150 _Zn1       33.4111   18.2529   33.4111 _Zn1    1             0.000000
   2151 _Zn1       44.0849    7.5791   33.4111 _Zn1    1             0.000000
   2152 _Zn1       33.4111    7.5791   44.0849 _Zn1    1             0.000000
   2153  _O1       32.2900    6.4580   32.2900  _O1    1             0.000000
   2154  _O1       45.2060    6.4580   32.2900  _O1    1             0.000000
   2155  _O1       45.2060   19.3740   32.2900  _O1    1             0.000000
   2156  _O1       32.2900   19.3740   32.2900  _O1    1             0.000000
   2157  _O1       32.2900   19.3740   45.2060  _O1    1             0.000000
   2158  _O1       45.2060   19.3740   45.2060  _O1    1             0.000000
   2159  _O1       45.2060    6.4580   45.2060  _O1    1             0.000000
   2160  _O1       32.2900    6.4580   45.2060  _O1    1             0.000000
   2161  _O2       33.1140    5.6340   29.2935  _O2    1             0.000000
   2162  _O2       46.0300    7.2820   29.2935  _O2    1             0.000000
   2163  _O2       44.3820   20.1980   29.2935  _O2    1             0.000000
   2164  _O2       31.4660   18.5500   29.2935  _O2    1             0.000000
   2165  _O2       33.1140   20.1980   48.2025  _O2    1             0.000000
   2166  _O2       46.0300   18.5500   48.2025  _O2    1             0.000000
   2167  _O2       44.3820    5.6340   48.2025  _O2    1             0.000000
   2168  _O2       31.4660    7.2820   48.2025  _O2    1             0.000000
   2169  _O2       29.2935    7.2820   31.4660  _O2    1             0.000000
   2170  _O2       29.2935   20.1980   33.1140  _O2    1             0.000000
   2171  _O2       29.2935   18.5500   46.0300  _O2    1             0.000000
   2172  _O2       29.2935    5.6340   44.3820  _O2    1             0.000000
   2173  _O2       48.2025    7.2820   46.0300  _O2    1             0.000000
   2174  _O2       48.2025   20.1980   44.3820  _O2    1             0.000000
   2175  _O2       48.2025   18.5500   31.4660  _O2    1             0.000000
   2176  _O2       48.2025    5.6340   33.1140  _O2    1             0.000000
   2177  _O2       44.3820    3.4615   31.4660  _O2    1             0.000000
   2178  _O2       31.4660    3.4615   33.1140  _O2    1             0.000000
   2179  _O2       33.1140    3.4615   46.0300  _O2    1             0.000000
   2180  _O2       46.0300    3.4615   44.3820  _O2    1             0.000000
   2181  _O2       44.3820   22.3705   46.0300  _O2    1             0.000000
   2182  _O2       31.4660   22.3705   44.3820  _O2    1             0.000000
   2183  _O2       33.1140   22.3705   31.4660  _O2    1             0.000000
   2184  _O2       46.0300   22.3705   33.1140  _O2    1             0.000000
   2185  _O2       44.3820   20.1980   48.2025  _O2    1             0.000000
   2186  _O2       31.4660   18.5500   48.2025  _O2    1             0.000000
   2187  _O2       33.1140    5.6340   48.2025  _O2    1             0.000000
   2188  _O2       46.0300    7.2820   48.2025  _O2    1             0.000000
   2189  _O2       44.3820    5.6340   29.2935  _O2    1             0.000000
   2190  _O2       31.4660    7.2820   29.2935  _O2    1             0.000000
   2191  _O2       33.1140   20.1980   29.2935  _O2    1             0.000000
   2192  _O2       46.0300   18.5500   29.2935  _O2    1             0.000000
   2193  _O2       48.2025   18.5500   46.0300  _O2    1             0.000000
   2194  _O2       48.2025    5.6340   44.3820  _O2    1             0.000000
   2195  _O2       48.2025    7.2820   31.4660  _O2    1             0.000000
   2196  _O2       48.2025   20.1980   33.1140  _O2    1             0.000000
   2197  _O2       29.2935   18.5500   31.4660  _O2    1             0.000000
   2198  _O2       29.2935    5.6340   33.1140  _O2    1             0.000000
   2199  _O2       29.2935    7.2820   46.0300  _O2    1             0.000000
   2200  _O2       29.2935   20.1980   44.3820  _O2    1             0.000000
   2201  _O2       33.1140   22.3705   46.0300  _O2    1             0.000000
   2202  _O2       46.0300   22.3705   44.3820  _O2    1             0.000000
   2203  _O2       44.3820   22.3705   31.4660  _O2    1             0.000000
   2204  _O2       31.4660   22.3705   33.1140  _O2    1             0.000000
   2205  _O2       33.1140    3.4615   31.4660  _O2    1             0.000000
   2206  _O2       46.0300    3.4615   33.1140  _O2    1             0.000000
   2207  _O2       44.3820    3.4615   46.0300  _O2    1             0.000000
   2208  _O2       31.4660    3.4615   44.3820  _O2    1             0.000000
   2209  _O2       33.1140   18.5500   42.2095  _O2    1             0.000000
   2210  _O2       46.0300   20.1980   42.2095  _O2    1             0.000000
   2211  _O2       44.3820    7.2820   42.2095  _O2    1             0.000000
   2212  _O2       31.4660    5.6340   42.2095  _O2    1             0.000000
   2213  _O2       33.1140    7.2820   35.2865  _O2    1             0.000000
   2214  _O2       46.0300    5.6340   35.2865  _O2    1             0.000000
   2215  _O2       44.3820   18.5500   35.2865  _O2    1             0.000000
   2216  _O2       31.4660   20.1980   35.2865  _O2    1             0.000000
   2217  _O2       44.3820   16.3775   44.3820  _O2    1             0.000000
   2218  _O2       31.4660   16.3775   46.0300  _O2    1             0.000000
   2219  _O2       33.1140   16.3775   33.1140  _O2    1             0.000000
   2220  _O2       46.0300   16.3775   31.4660  _O2    1             0.000000
   2221  _O2       44.3820    9.4545   33.1140  _O2    1             0.000000
   2222  _O2       31.4660    9.4545   31.4660  _O2    1             0.000000
   2223  _O2       33.1140    9.4545   44.3820  _O2    1             0.000000
   2224  _O2       46.0300    9.4545   46.0300  _O2    1             0.000000
   2225  _O2       44.3820    7.2820   35.2865  _O2    1             0.000000
   2226  _O2       31.4660    5.6340   35.2865  _O2    1             0.000000
   2227  _O2       33.1140   18.5500   35.2865  _O2    1             0.000000
   2228  _O2       46.0300   20.1980   35.2865  _O2    1             0.000000
   2229  _O2       44.3820   18.5500   42.2095  _O2    1             0.000000
   2230  _O2       31.4660   20.1980   42.2095  _O2    1             0.000000
   2231  _O2       33.1140    7.2820   42.2095  _O2    1             0.000000
   2232  _O2       46.0300    5.6340   42.2095  _O2    1             0.000000
   2233  _O2       33.1140    9.4545   33.1140  _O2    1             0.000000
   2234  _O2       46.0300    9.4545   31.4660  _O2    1             0.000000
   2235  _O2       44.3820    9.4545   44.3820  _O2    1             0.000000
   2236  _O2       31.4660    9.4545   46.0300  _O2    1             0.000000
   2237  _O2       33.1140   16.3775   44.3820  _O2    1             0.000000
   2238  _O2       46.0300   16.3775   46.0300  _O2    1             0.000000
   2239  _O2       44.3820   16.3775   33.1140  _O2    1             0.000000
   2240  _O2       31.4660   16.3775   31.4660  _O2    1             0.000000
   2241  _O2       42.2095    7.2820   44.3820  _O2    1             0.000000
   2242  _O2       42.2095   20.1980   46.0300  _O2    1             0.000000
   2243  _O2       42.2095   18.5500   33.1140  _O2    1             0.000000
   2244  _O2       42.2095    5.6340   31.4660  _O2    1             0.000000
   2245  _O2       35.2865    7.2820   33.1140  _O2    1             0.000000
   2246  _O2       35.2865   20.1980   31.4660  _O2    1             0.000000
   2247  _O2       35.2865   18.5500   44.3820  _O2    1             0.000000
   2248  _O2       35.2865    5.6340   46.0300  _O2    1             0.000000
   2249  _O2       35.2865   18.5500   33.1140  _O2    1             0.000000
   2250  _O2       35.2865    5.6340   31.4660  _O2    1             0.000000
   2251  _O2       35.2865    7.2820   44.3820  _O2    1             0.000000
   2252  _O2       35.2865   20.1980   46.0300  _O2    1             0.000000
   2253  _O2       42.2095   18.5500   44.3820  _O2    1             0.000000
   2254  _O2       42.2095    5.6340   46.0300  _O2    1             0.000000
   2255  _O2       42.2095    7.2820   33.1140  _O2    1             0.000000
   2256  _O2       42.2095   20.1980   31.4660  _O2    1             0.000000
   2257  _C1       32.2900    6.4580   28.7071  _C1    1             0.000000
   2258  _C1       45.2060    6.4580   28.7071  _C1    1             0.000000
   2259  _C1       45.2060   19.3740   28.7071  _C1    1             0.000000
   2260  _C1       32.2900   19.3740   28.7071  _C1    1             0.000000
   2261  _C1       32.2900   19.3740   48.7889  _C1    1             0.000000
   2262  _C1       45.2060   19.3740   48.7889  _C1    1             0.000000
   2263  _C1       45.2060    6.4580   48.7889  _C1    1             0.000000
   2264  _C1       32.2900    6.4580   48.7889  _C1    1             0.000000
   2265  _C1       28.7071    6.4580   32.2900  _C1    1             0.000000
   2266  _C1       28.7071   19.3740   32.2900  _C1    1             0.000000
   2267  _C1       28.7071   19.3740   45.2060  _C1    1             0.000000
   2268  _C1       28.7071    6.4580   45.2060  _C1    1             0.000000
   2269  _C1       48.7889    6.4580   45.2060  _C1    1             0.000000
   2270  _C1       48.7889   19.3740   45.2060  _C1    1             0.000000
   2271  _C1       48.7889   19.3740   32.2900  _C1    1             0.000000
   2272  _C1       48.7889    6.4580   32.2900  _C1    1             0.000000
   2273  _C1       45.2060    2.8751   32.2900  _C1    1             0.000000
   2274  _C1       32.2900    2.8751   32.2900  _C1    1             0.000000
   2275  _C1       32.2900    2.8751   45.2060  _C1    1             0.000000
   2276  _C1       45.2060    2.8751   45.2060  _C1    1             0.000000
   2277  _C1       45.2060   22.9569   45.2060  _C1    1             0.000000
   2278  _C1       32.2900   22.9569   45.2060  _C1    1             0.000000
   2279  _C1       32.2900   22.9569   32.2900  _C1    1             0.000000
   2280  _C1       45.2060   22.9569   32.2900  _C1    1             0.000000
   2281  _C1       32.2900   19.3740   41.6231  _C1    1             0.000000
   2282  _C1       45.2060   19.3740   41.6231  _C1    1             0.000000
   2283  _C1       45.2060    6.4580   41.6231  _C1    1             0.000000
   2284  _C1       32.2900    6.4580   41.6231  _C1    1             0.000000
   2285  _C1       32.2900    6.4580   35.8729  _C1    1             0.000000
   2286  _C1       45.2060    6.4580   35.8729  _C1    1             0.000000
   2287  _C1       45.2060   19.3740   35.8729  _C1    1             0.000000
   2288  _C1       32.2900   19.3740   35.8729  _C1    1             0.000000
   2289  _C1       45.2060   15.7911   45.2060  _C1    1             0.000000
   2290  _C1       32.2900   15.7911   45.2060  _C1    1             0.000000
   2291  _C1       32.2900   15.7911   32.2900  _C1    1             0.000000
   2292  _C1       45.2060   15.7911   32.2900  _C1    1             0.000000
   2293  _C1       45.2060   10.0409   32.2900  _C1    1             0.000000
   2294  _C1       32.2900   10.0409   32.2900  _C1    1             0.000000
   2295  _C1       32.2900   10.0409   45.2060  _C1    1             0.000000
   2296  _C1       45.2060   10.0409   45.2060  _C1    1             0.000000
   2297  _C1       41.6231    6.4580   45.2060  _C1    1             0.000000
   2298  _C1       41.6231   19.3740   45.2060  _C1    1             0.000000
   2299  _C1       41.6231   19.3740   32.2900  _C1    1             0.000000
   2300  _C1       41.6231    6.4580   32.2900  _C1    1             0.000000
   2301  _C1       35.8729    6.4580   32.2900  _C1    1             0.000000
   2302  _C1       35.8729   19.3740   32.2900  _C1    1             0.000000
   2303  _C1       35.8729   19.3740   45.2060  _C1    1             0.000000
   2304  _C1       35.8729    6.4580   45.2060  _C1    1             0.000000
   2305  _C2       32.2900    6.4580   27.2218  _C2    1             0.000000
   2306  _C2       45.2060    6.4580   27.2218  _C2    1             0.000000
   2307  _C2       45.2060   19.3740   27.2218  _C2    1             0.000000
   2308  _C2       32.2900   19.3740   27.2218  _C2    1             0.000000
   2309  _C2       32.2900   19.3740   50.2742  _C2    1             0.000000
   2310  _C2       45.2060   19.3740   50.2742  _C2    1             0.000000
   2311  _C2       45.2060    6.4580   50.2742  _C2    1             0.000000
   2312  _C2       32.2900    6.4580   50.2742  _C2    1             0.000000
   2313  _C2       27.2218    6.4580   32.2900  _C2    1             0.000000
   2314  _C2       27.2218   19.3740   32.2900  _C2    1             0.000000
   2315  _C2       27.2218   19.3740   45.2060  _C2    1             0.000000
   2316  _C2       27.2218    6.4580   45.2060  _C2    1             0.000000
   2317  _C2       50.2742    6.4580   45.2060  _C2    1             0.000000
   2318  _C2       50.2742   19.3740   45.2060  _C2    1             0.000000
   2319  _C2       50.2742   19.3740   32.2900  _C2    1             0.000000
   2320  _C2       50.2742    6.4580   32.2900  _C2    1             0.000000
   2321  _C2       45.2060    1.3898   32.2900  _C2    1             0.000000
   2322  _C2       32.2900    1.3898   32.2900  _C2    1             0.000000
   2323  _C2       32.2900    1.3898   45.2060  _C2    1             0.000000
   2324  _C2       45.2060    1.3898   45.2060  _C2    1             0.000000
   2325  _C2       45.2060   24.4422   45.2060  _C2    1             0.000000
   2326  _C2       32.2900   24.4422   45.2060  _C2    1             0.000000
   2327  _C2       32.2900   24.4422   32.2900  _C2    1             0.000000
   2328  _C2       45.2060   24.4422   32.2900  _C2    1             0.000000
   2329  _C2       32.2900   19.3740   40.1378  _C2    1             0.000000
   2330  _C2       45.2060   19.3740   40.1378  _C2    1             0.000000
   2331  _C2       45.2060    6.4580   40.1378  _C2    1             0.000000
   2332  _C2       32.2900    6.4580   40.1378  _C2    1             0.000000
   2333  _C2       32.2900    6.4580   37.3582  _C2    1             0.000000
   2334  _C2       45.2060    6.4580   37.3582  _C2    1             0.000000
   2335  _C2       45.2060   19.3740   37.3582  _C2    1             0.000000
   2336  _C2       32.2900   19.3740   37.3582  _C2    1             0.000000
   2337  _C2       45.2060   14.3058   45.2060  _C2    1             0.000000
   2338  _C2       32.2900   14.3058   45.2060  _C2    1             0.000000
   2339  _C2       32.2900   14.3058   32.2900  _C2    1             0.000000
   2340  _C2       45.2060   14.3058   32.2900  _C2    1             0.000000
   2341  _C2       45.2060   11.5262   32.2900  _C2    1             0.000000
   2342  _C2       32.2900   11.5262   32.2900  _C2    1             0.000000
   2343  _C2       32.2900   11.5262   45.2060  _C2    1             0.000000
   2344  _C2       45.2060   11.5262   45.2060  _C2    1             0.000000
   2345  _C2       40.1378    6.4580   45.2060  _C2    1             0.000000
   2346  _C2       40.1378   19.3740   45.2060  _C2    1             0.000000
   2347  _C2       40.1378   19.3740   32.2900  _C2    1             0.000000
   2348  _C2       40.1378    6.4580   32.2900  _C2    1             0.000000
   2349  _C2       37.3582    6.4580   32.2900  _C2    1             0.000000
   2350  _C2       37.3582   19.3740   32.2900  _C2    1             0.000000
   2351  _C2       37.3582   19.3740   45.2060  _C2    1             0.000000
   2352  _C2       37.3582    6.4580   45.2060  _C2    1             0.000000
   2353  _C3       33.1399    5.6081   26.5269  _C3    1             0.000000
   2354  _C3       46.0559    7.3079   26.5269  _C3    1             0.000000
   2355  _C3       44.3561   20.2239   26.5269  _C3    1             0.000000
   2356  _C3       31.4401   18.5241   26.5269  _C3    1             0.000000
   2357  _C3       33.1399   20.2239   50.9691  _C3    1             0.000000
   2358  _C3       46.0559   18.5241   50.9691  _C3    1             0.000000
   2359  _C3       44.3561    5.6081   50.9691  _C3    1             0.000000
   2360  _C3       31.4401    7.3079   50.9691  _C3    1             0.000000
   2361  _C3       26.5269    7.3079   31.4401  _C3    1             0.000000
   2362  _C3       26.5269   20.2239   33.1399  _C3    1             0.000000
   2363  _C3       26.5269   18.5241   46.0559  _C3    1             0.000000
   2364  _C3       26.5269    5.6081   44.3561  _C3    1             0.000000
   2365  _C3       50.9691    7.3079   46.0559  _C3    1             0.000000
   2366  _C3       50.9691   20.2239   44.3561  _C3    1             0.000000
   2367  _C3       50.9691   18.5241   31.4401  _C3    1             0.000000
   2368  _C3       50.9691    5.6081   33.1399  _C3    1             0.000000
   2369  _C3       44.3561    0.6949   31.4401  _C3    1             0.000000
   2370  _C3       31.4401    0.6949   33.1399  _C3    1             0.000000
   2371  _C3       33.1399    0.6949   46.0559  _C3    1             0.000000
   2372  _C3       46.0559    0.6949   44.3561  _C3    1             0.000000
   2373  _C3       44.3561   25.1371   46.0559  _C3    1             0.000000
   2374  _C3       31.4401   25.1371   44.3561  _C3    1             0.000000
   2375  _C3       33.1399   25.1371   31.4401  _C3    1             0.000000
   2376  _C3       46.0559   25.1371   33.1399  _C3    1             0.000000
   2377  _C3       44.3561   20.2239   50.9691  _C3    1             0.000000
   2378  _C3       31.4401   18.5241   50.9691  _C3    1             0.000000
   2379  _C3       33.1399    5.6081   50.9691  _C3    1             0.000000
   2380  _C3       46.0559    7.3079   50.9691  _C3    1             0.000000
   2381  _C3       44.3561    5.6081   26.5269  _C3    1             0.000000
   2382  _C3       31.4401    7.3079   26.5269  _C3    1             0.000000
   2383  _C3       33.1399   20.2239   26.5269  _C3    1             0.000000
   2384  _C3       46.0559   18.5241   26.5269  _C3    1             0.000000
   2385  _C3       50.9691   18.5241   46.0559  _C3    1             0.000000
   2386  _C3       50.9691    5.6081   44.3561  _C3    1             0.000000
   2387  _C3       50.9691    7.3079   31.4401  _C3    1             0.000000
   2388  _C3       50.9691   20.2239   33.1399  _C3    1             0.000000
   2389  _C3       26.5269   18.5241   31.4401  _C3    1             0.000000
   2390  _C3       26.5269    5.6081   33.1399  _C3    1             0.000000
   2391  _C3       26.5269    7.3079   46.0559  _C3    1             0.000000
   2392  _C3       26.5269   20.2239   44.3561  _C3    1             0.000000
   2393  _C3       33.1399   25.1371   46.0559  _C3    1             0.000000
   2394  _C3       46.0559   25.1371   44.3561  _C3    1             0.000000
   2395  _C3       44.3561   25.1371   31.4401  _C3    1             0.000000
   2396  _C3       31.4401   25.1371   33.1399  _C3    1             0.000000
   2397  _C3       33.1399    0.6949   31.4401  _C3    1             0.000000
   2398  _C3       46.0559    0.6949   33.1399  _C3    1             0.000000
   2399  _C3       44.3561    0.6949   46.0559  _C3    1             0.000000
   2400  _C3       31.4401    0.6949   44.3561  _C3    1             0.000000
   2401  _C3       33.1399   18.5241   39.4429  _C3    1             0.000000
   2402  _C3       46.0559   20.2239   39.4429  _C3    1             0.000000
   2403  _C3       44.3561    7.3079   39.4429  _C3    1             0.000000
   2404  _C3       31.4401    5.6081   39.4429  _C3    1             0.000000
   2405  _C3       33.1399    7.3079   38.0531  _C3    1             0.000000
   2406  _C3       46.0559    5.6081   38.0531  _C3    1             0.000000
   2407  _C3       44.3561   18.5241   38.0531  _C3    1             0.000000
   2408  _C3       31.4401   20.2239   38.0531  _C3    1             0.000000
   2409  _C3       44.3561   13.6109   44.3561  _C3    1             0.000000
   2410  _C3       31.4401   13.6109   46.0559  _C3    1             0.000000
   2411  _C3       33.1399   13.6109   33.1399  _C3    1             0.000000
   2412  _C3       46.0559   13.6109   31.4401  _C3    1             0.000000
   2413  _C3       44.3561   12.2211   33.1399  _C3    1             0.000000
   2414  _C3       31.4401   12.2211   31.4401  _C3    1             0.000000
   2415  _C3       33.1399   12.2211   44.3561  _C3    1             0.000000
   2416  _C3       46.0559   12.2211   46.0559  _C3    1             0.000000
   2417  _C3       44.3561    7.3079   38.0531  _C3    1             0.000000
   2418  _C3       31.4401    5.6081   38.0531  _C3    1             0.000000
   2419  _C3       33.1399   18.5241   38.0531  _C3    1             0.000000
   2420  _C3       46.0559   20.2239   38.0531  _C3    1             0.000000
   2421  _C3       44.3561   18.5241   39.4429  _C3    1             0.000000
   2422  _C3       31.4401   20.2239   39.4429  _C3    1             0.000000
   2423  _C3       33.1399    7.3079   39.4429  _C3    1             0.000000
   2424  _C3       46.0559    5.6081   39.4429  _C3    1             0.000000
   2425  _C3       33.1399   12.2211   33.1399  _C3    1             0.000000
   2426  _C3       46.0559   12.2211   31.4401  _C3    1             0.000000
   2427  _C3       44.3561   12.2211   44.3561  _C3    1             0.000000
   2428  _C3       31.4401   12.2211   46.0559  _C3    1             0.000000
   2429  _C3       33.1399   13.6109   44.3561  _C3    1             0.000000
   2430  _C3       46.0559   13.6109   46.0559  _C3    1             0.000000
   2431  _C3       44.3561   13.6109   33.1399  _C3    1             0.000000
   2432  _C3       31.4401   13.6109   31.4401  _C3    1             0.000000
   2433  _C3       39.4429    7.3079   44.3561  _C3    1             0.000000
   2434  _C3       39.4429   20.2239   46.0559  _C3    1             0.000000
   2435  _C3       39.4429   18.5241   33.1399  _C3    1             0.000000
   2436  _C3       39.4429    5.6081   31.4401  _C3    1             0.000000
   2437  _C3       38.0531    7.3079   33.1399  _C3    1             0.000000
   2438  _C3       38.0531   20.2239   31.4401  _C3    1             0.000000
   2439  _C3       38.0531   18.5241   44.3561  _C3    1             0.000000
   2440  _C3       38.0531    5.6081   46.0559  _C3    1             0.000000
   2441  _C3       38.0531   18.5241   33.1399  _C3    1             0.000000
   2442  _C3       38.0531    5.6081   31.4401  _C3    1             0.000000
   2443  _C3       38.0531    7.3079   44.3561  _C3    1             0.000000
   2444  _C3       38.0531   20.2239   46.0559  _C3    1             0.000000
   2445  _C3       39.4429   18.5241   44.3561  _C3    1             0.000000
   2446  _C3       39.4429    5.6081   46.0559  _C3    1             0.000000
   2447  _C3       39.4429    7.3079   33.1399  _C3    1             0.000000
   2448  _C3       39.4429   20.2239   31.4401  _C3    1             0.000000
   2449  _H1       33.7082    5.0398   26.9893  _H1    1             0.000000
   2450  _H1       46.6242    7.8762   26.9893  _H1    1             0.000000
   2451  _H1       43.7878   20.7922   26.9893  _H1    1             0.000000
   2452  _H1       30.8718   17.9558   26.9893  _H1    1             0.000000
   2453  _H1       33.7082   20.7922   50.5067  _H1    1             0.000000
   2454  _H1       46.6242   17.9558   50.5067  _H1    1             0.000000
   2455  _H1       43.7878    5.0398   50.5067  _H1    1             0.000000
   2456  _H1       30.8718    7.8762   50.5067  _H1    1             0.000000
   2457  _H1       26.9893    7.8762   30.8718  _H1    1             0.000000
   2458  _H1       26.9893   20.7922   33.7082  _H1    1             0.000000
   2459  _H1       26.9893   17.9558   46.6242  _H1    1             0.000000
   2460  _H1       26.9893    5.0398   43.7878  _H1    1             0.000000
   2461  _H1       50.5067    7.8762   46.6242  _H1    1             0.000000
   2462  _H1       50.5067   20.7922   43.7878  _H1    1             0.000000
   2463  _H1       50.5067   17.9558   30.8718  _H1    1             0.000000
   2464  _H1       50.5067    5.0398   33.7082  _H1    1             0.000000
   2465  _H1       43.7878    1.1573   30.8718  _H1    1             0.000000
   2466  _H1       30.8718    1.1573   33.7082  _H1    1             0.000000
   2467  _H1       33.7082    1.1573   46.6242  _H1    1             0.000000
   2468  _H1       46.6242    1.1573   43.7878  _H1    1             0.000000
   2469  _H1       43.7878   24.6747   46.6242  _H1    1             0.000000
   2470  _H1       30.8718   24.6747   43.7878  _H1    1             0.000000
   2471  _H1       33.7082   24.6747   30.8718  _H1    1             0.000000
   2472  _H1       46.6242   24.6747   33.7082  _H1    1             0.000000
   2473  _H1       43.7878   20.7922   50.5067  _H1    1             0.000000
   2474  _H1       30.8718   17.9558   50.5067  _H1    1             0.000000
   2475  _H1       33.7082    5.0398   50.5067  _H1    1             0.000000
   2476  _H1       46.6242    7.8762   50.5067  _H1    1             0.000000
   2477  _H1       43.7878    5.0398   26.9893  _H1    1             0.000000
   2478  _H1       30.8718    7.8762   26.9893  _H1    1             0.000000
   2479  _H1       33.7082   20.7922   26.9893  _H1    1             0.000000
   2480  _H1       46.6242   17.9558   26.9893  _H1    1             0.000000
   2481  _H1       50.5067   17.9558   46.6242  _H1    1             0.000000
   2482  _H1       50.5067    5.0398   43.7878  _H1    1             0.000000
   2483  _H1       50.5067    7.8762   30.8718  _H1    1             0.000000
   2484  _H1       50.5067   20.7922   33.7082  _H1    1             0.000000
   2485  _H1       26.9893   17.9558   30.8718  _H1    1             0.000000
   2486  _H1       26.9893    5.0398   33.7082  _H1    1             0.000000
   2487  _H1       26.9893    7.8762   46.6242  _H1    1             0.000000
   2488  _H1       26.9893   20.7922   43.7878  _H1    1             0.000000
   2489  _H1       33.7082   24.6747   46.6242  _H1    1             0.000000
   2490  _H1       46.6242   24.6747   43.7878  _H1    1             0.000000
   2491  _H1       43.7878   24.6747   30.8718  _H1    1             0.000000
   2492  _H1       30.8718   24.6747   33.7082  _H1    1             0.000000
   2493  _H1       33.7082    1.1573   30.8718  _H1    1             0.000000
   2494  _H1       46.6242    1.1573   33.7082  _H1    1             0.000000
   2495  _H1       43.7878    1.1573   46.6242  _H1    1             0.000000
   2496  _H1       30.8718    1.1573   43.7878  _H1    1             0.000000
   2497  _H1       33.7082   17.9558   39.9053  _H1    1             0.000000
   2498  _H1       46.6242   20.7922   39.9053  _H1    1             0.000000
   2499  _H1       43.7878    7.8762   39.9053  _H1    1             0.000000
   2500  _H1       30.8718    5.0398   39.9053  _H1    1             0.000000
   2501  _H1       33.7082    7.8762   37.5907  _H1    1             0.000000
   2502  _H1       46.6242    5.0398   37.5907  _H1    1             0.000000
   2503  _H1       43.7878   17.9558   37.5907  _H1    1             0.000000
   2504  _H1       30.8718   20.7922   37.5907  _H1    1             0.000000
   2505  _H1       43.7878   14.0733   43.7878  _H1    1             0.000000
   2506  _H1       30.8718   14.0733   46.6242  _H1    1             0.000000
   2507  _H1       33.7082   14.0733   33.7082  _H1    1             0.000000
   2508  _H1       46.6242   14.0733   30.8718  _H1    1             0.000000
   2509  _H1       43.7878   11.7587   33.7082  _H1    1             0.000000
   2510  _H1       30.8718   11.7587   30.8718  _H1    1             0.000000
   2511  _H1       33.7082   11.7587   43.7878  _H1    1             0.000000
   2512  _H1       46.6242   11.7587   46.6242  _H1    1             0.000000
   2513  _H1       43.7878    7.8762   37.5907  _H1    1             0.000000
   2514  _H1       30.8718    5.0398   37.5907  _H1    1             0.000000
   2515  _H1       33.7082   17.9558   37.5907  _H1    1             0.000000
   2516  _H1       46.6242   20.7922   37.5907  _H1    1             0.000000
   2517  _H1       43.7878   17.9558   39.9053  _H1    1             0.000000
   2518  _H1       30.8718   20.7922   39.9053  _H1    1             0.000000
   2519  _H1       33.7082    7.8762   39.9053  _H1    1             0.000000
   2520  _H1       46.6242    5.0398   39.9053  _H1    1             0.000000
   2521  _H1       33.7082   11.7587   33.7082  _H1    1             0.000000
   2522  _H1       46.6242   11.7587   30.8718  _H1    1             0.000000
   2523  _H1       43.7878   11.7587   43.7878  _H1    1             0.000000
   2524  _H1       30.8718   11.7587   46.6242  _H1    1             0.000000
   2525  _H1       33.7082   14.0733   43.7878  _H1    1             0.000000
   2526  _H1       46.6242   14.0733   46.6242  _H1    1             0.000000
   2527  _H1       43.7878   14.0733   33.7082  _H1    1             0.000000
   2528  _H1       30.8718   14.0733   30.8718  _H1    1             0.000000
   2529  _H1       39.9053    7.8762   43.7878  _H1    1             0.000000
   2530  _H1       39.9053   20.7922   46.6242  _H1    1             0.000000
   2531  _H1       39.9053   17.9558   33.7082  _H1    1             0.000000
   2532  _H1       39.9053    5.0398   30.8718  _H1    1             0.000000
   2533  _H1       37.5907    7.8762   33.7082  _H1    1             0.000000
   2534  _H1       37.5907   20.7922   30.8718  _H1    1             0.000000
   2535  _H1       37.5907   17.9558   43.7878  _H1    1             0.000000
   2536  _H1       37.5907    5.0398   46.6242  _H1    1             0.000000
   2537  _H1       37.5907   17.9558   33.7082  _H1    1             0.000000
   2538  _H1       37.5907    5.0398   30.8718  _H1    1             0.000000
   2539  _H1       37.5907    7.8762   43.7878  _H1    1             0.000000
   2540  _H1       37.5907   20.7922   46.6242  _H1    1             0.000000
   2541  _H1       39.9053   17.9558   43.7878  _H1    1             0.000000
   2542  _H1       39.9053    5.0398   46.6242  _H1    1             0.000000
   2543  _H1       39.9053    7.8762   33.7082  _H1    1             0.000000
   2544  _H1       39.9053   20.7922   30.8718  _H1    1             0.000000
   2545 _Zn1       33.4111   31.1689    5.3369 _Zn1    1             0.000000
   2546 _Zn1       46.3271   33.4111    5.3369 _Zn1    1             0.000000
   2547 _Zn1       44.0849   46.3271    5.3369 _Zn1    1             0.000000
   2548 _Zn1       31.1689   44.0849    5.3369 _Zn1    1             0.000000
   2549 _Zn1       33.4111   46.3271   20.4951 _Zn1    1             0.000000
   2550 _Zn1       46.3271   44.0849   20.4951 _Zn1    1             0.000000
   2551 _Zn1       44.0849   31.1689   20.4951 _Zn1    1             0.000000
   2552 _Zn1       31.1689   33.4111   20.4951 _Zn1    1             0.000000
   2553 _Zn1       31.1689   33.4111    5.3369 _Zn1    1             0.000000
   2554 _Zn1       31.1689   46.3271    7.5791 _Zn1    1             0.000000
   2555 _Zn1       31.1689   44.0849   20.4951 _Zn1    1             0.000000
   2556 _Zn1       31.1689   31.1689   18.2529 _Zn1    1             0.000000
   2557 _Zn1       46.3271   33.4111   20.4951 _Zn1    1             0.000000
   2558 _Zn1       46.3271   46.3271   18.2529 _Zn1    1             0.000000
   2559 _Zn1       46.3271   44.0849    5.3369 _Zn1    1             0.000000
   2560 _Zn1       46.3271   31.1689    7.5791 _Zn1    1             0.000000
   2561 _Zn1       44.0849   31.1689    5.3369 _Zn1    1             0.000000
   2562 _Zn1       31.1689   31.1689    7.5791 _Zn1    1             0.000000
   2563 _Zn1       33.4111   31.1689   20.4951 _Zn1    1             0.000000
   2564 _Zn1       46.3271   31.1689   18.2529 _Zn1    1             0.000000
   2565 _Zn1       44.0849   46.3271   20.4951 _Zn1    1             0.000000
   2566 _Zn1       31.1689   46.3271   18.2529 _Zn1    1             0.000000
   2567 _Zn1       33.4111   46.3271    5.3369 _Zn1    1             0.000000
   2568 _Zn1       46.3271   46.3271    7.5791 _Zn1    1             0.000000
   2569 _Zn1       33.4111   44.0849   18.2529 _Zn1    1             0.000000
   2570 _Zn1       44.0849   33.4111   18.2529 _Zn1    1             0.000000
   2571 _Zn1       33.4111   33.4111    7.5791 _Zn1    1             0.000000
   2572 _Zn1       44.0849   44.0849    7.5791 _Zn1    1             0.000000
   2573 _Zn1       44.0849   44.0849   18.2529 _Zn1    1             0.000000
   2574 _Zn1       33.4111   44.0849    7.5791 _Zn1    1             0.000000
   2575 _Zn1       44.0849   33.4111    7.5791 _Zn1    1             0.000000
   2576 _Zn1       33.4111   33.4111   18.2529 _Zn1    1             0.000000
   2577  _O1       32.2900   32.2900    6.4580  _O1    1             0.000000
   2578  _O1       45.2060   32.2900    6.4580  _O1    1             0.000000
   2579  _O1       45.2060   45.2060    6.4580  _O1    1             0.000000
   2580  _O1       32.2900   45.2060    6.4580  _O1    1             0.000000
   2581  _O1       32.2900   45.2060   19.3740  _O1    1             0.000000
   2582  _O1       45.2060   45.2060   19.3740  _O1    1             0.000000
   2583  _O1       45.2060   32.2900   19.3740  _O1    1             0.000000
   2584  _O1       32.2900   32.2900   19.3740  _O1    1             0.000000
   2585  _O2       33.1140   31.4660    3.4615  _O2    1             0.000000
   2586  _O2       46.0300   33.1140    3.4615  _O2    1             0.000000
   2587  _O2       44.3820   46.0300    3.4615  _O2    1             0.000000
   2588  _O2       31.4660   44.3820    3.4615  _O2    1             0.000000
   2589  _O2       33.1140   46.0300   22.3705  _O2    1             0.000000
   2590  _O2       46.0300   44.3820   22.3705  _O2    1             0.000000
   2591  _O2       44.3820   31.4660   22.3705  _O2    1             0.000000
   2592  _O2       31.4660   33.1140   22.3705  _O2    1             0.000000
   2593  _O2       29.2935   33.1140    5.6340  _O2    1             0.000000
   2594  _O2       29.2935   46.0300    7.2820  _O2    1             0.000000
   2595  _O2       29.2935   44.3820   20.1980  _O2    1             0.000000
   2596  _O2       29.2935   31.4660   18.5500  _O2    1             0.000000
   2597  _O2       48.2025   33.1140   20.1980  _O2    1             0.000000
   2598  _O2       48.2025   46.0300   18.5500  _O2    1             0.000000
   2599  _O2       48.2025   44.3820    5.6340  _O2    1             0.000000
   2600  _O2       48.2025   31.4660    7.2820  _O2    1             0.000000
   2601  _O2       44.3820   29.2935    5.6340  _O2    1             0.000000
   2602  _O2       31.4660   29.2935    7.2820  _O2    1             0.000000
   2603  _O2       33.1140   29.2935   20.1980  _O2    1             0.000000
   2604  _O2       46.0300   29.2935   18.5500  _O2    1             0.000000
   2605  _O2       44.3820   48.2025   20.1980  _O2    1             0.000000
   2606  _O2       31.4660   48.2025   18.5500  _O2    1             0.000000
   2607  _O2       33.1140   48.2025    5.6340  _O2    1             0.000000
   2608  _O2       46.0300   48.2025    7.2820  _O2    1             0.000000
   2609  _O2       44.3820   46.0300   22.3705  _O2    1             0.000000
   2610  _O2       31.4660   44.3820   22.3705  _O2    1             0.000000
   2611  _O2       33.1140   31.4660   22.3705  _O2    1             0.000000
   2612  _O2       46.0300   33.1140   22.3705  _O2    1             0.000000
   2613  _O2       44.3820   31.4660    3.4615  _O2    1             0.000000
   2614  _O2       31.4660   33.1140    3.4615  _O2    1             0.000000
   2615  _O2       33.1140   46.0300    3.4615  _O2    1             0.000000
   2616  _O2       46.0300   44.3820    3.4615  _O2    1             0.000000
   2617  _O2       48.2025   44.3820   20.1980  _O2    1             0.000000
   2618  _O2       48.2025   31.4660   18.5500  _O2    1             0.000000
   2619  _O2       48.2025   33.1140    5.6340  _O2    1             0.000000
   2620  _O2       48.2025   46.0300    7.2820  _O2    1             0.000000
   2621  _O2       29.2935   44.3820    5.6340  _O2    1             0.000000
   2622  _O2       29.2935   31.4660    7.2820  _O2    1             0.000000
   2623  _O2       29.2935   33.1140   20.1980  _O2    1             0.000000
   2624  _O2       29.2935   46.0300   18.5500  _O2    1             0.000000
   2625  _O2       33.1140   48.2025   20.1980  _O2    1             0.000000
   2626  _O2       46.0300   48.2025   18.5500  _O2    1             0.000000
   2627  _O2       44.3820   48.2025    5.6340  _O2    1             0.000000
   2628  _O2       31.4660   48.2025    7.2820  _O2    1             0.000000
   2629  _O2       33.1140   29.2935    5.6340  _O2    1             0.000000
   2630  _O2       46.0300   29.2935    7.2820  _O2    1             0.000000
   2631  _O2       44.3820   29.2935   20.1980  _O2    1             0.000000
   2632  _O2       31.4660   29.2935   18.5500  _O2    1             0.000000
   2633  _O2       33.1140   44.3820   16.3775  _O2    1             0.000000
   2634  _O2       46.0300   46.0300   16.3775  _O2    1             0.000000
   2635  _O2       44.3820   33.1140   16.3775  _O2    1             0.000000
   2636  _O2       31.4660   31.4660   16.3775  _O2    1             0.000000
   2637  _O2       33.1140   33.1140    9.4545  _O2    1             0.000000
   2638  _O2       46.0300   31.4660    9.4545  _O2    1             0.000000
   2639  _O2       44.3820   44.3820    9.4545  _O2    1             0.000000
   2640  _O2       31.4660   46.0300    9.4545  _O2    1             0.000000
   2641  _O2       44.3820   42.2095   18.5500  _O2    1             0.000000
   2642  _O2       31.4660   42.2095   20.1980  _O2    1             0.000000
   2643  _O2       33.1140   42.2095    7.2820  _O2    1             0.000000
   2644  _O2       46.0300   42.2095    5.6340  _O2    1             0.000000
   2645  _O2       44.3820   35.2865    7.2820  _O2    1             0.000000
   2646  _O2       31.4660   35.2865    5.6340  _O2    1             0.000000
   2647  _O2       33.1140   35.2865   18.5500  _O2    1             0.000000
   2648  _O2       46.0300   35.2865   20.1980  _O2    1             0.000000
   2649  _O2       44.3820   33.1140    9.4545  _O2    1             0.000000
   2650  _O2       31.4660   31.4660    9.4545  _O2    1             0.000000
   2651  _O2       33.1140   44.3820    9.4545  _O2    1             0.000000
   2652  _O2       46.0300   46.0300    9.4545  _O2    1             0.000000
   2653  _O2       44.3820   44.3820   16.3775  _O2    1             0.000000
   2654  _O2       31.4660   46.0300   16.3775  _O2    1             0.000000
   2655  _O2       33.1140   33.1140   16.3775  _O2    1             0.000000
   2656  _O2       46.0300   31.4660   16.3775  _O2    1             0.000000
   2657  _O2       33.1140   35.2865    7.2820  _O2    1             0.000000
   2658  _O2       46.0300   35.2865    5.6340  _O2    1             0.000000
   2659  _O2       44.3820   35.2865   18.5500  _O2    1             0.000000
   2660  _O2       31.4660   35.2865   20.1980  _O2    1             0.000000
   2661  _O2       33.1140   42.2095   18.5500  _O2    1             0.000000
   2662  _O2       46.0300   42.2095   20.1980  _O2    1             0.000000
   2663  _O2       44.3820   42.2095    7.2820  _O2    1             0.000000
   2664  _O2       31.4660   42.2095    5.6340  _O2    1             0.000000
   2665  _O2       42.2095   33.1140   18.5500  _O2    1             0.000000
   2666  _O2       42.2095   46.0300   20.1980  _O2    1             0.000000
   2667  _O2       42.2095   44.3820    7.2820  _O2    1             0.000000
   2668  _O2       42.2095   31.4660    5.6340  _O2    1             0.000000
   2669  _O2       35.2865   33.1140    7.2820  _O2    1             0.000000
   2670  _O2       35.2865   46.0300    5.6340  _O2    1             0.000000
   2671  _O2       35.2865   44.3820   18.5500  _O2    1             0.000000
   2672  _O2       35.2865   31.4660   20.1980  _O2    1             0.000000
   2673  _O2       35.2865   44.3820    7.2820  _O2    1             0.000000
   2674  _O2       35.2865   31.4660    5.6340  _O2    1             0.000000
   2675  _O2       35.2865   33.1140   18.5500  _O2    1             0.000000
   2676  _O2       35.2865   46.0300   20.1980  _O2    1             0.000000
   2677  _O2       42.2095   44.3820   18.5500  _O2    1             0.000000
   2678  _O2       42.2095   31.4660   20.1980  _O2    1             0.000000
   2679  _O2       42.2095   33.1140    7.2820  _O2    1             0.000000
   2680  _O2       42.2095   46.0300    5.6340  _O2    1             0.000000
   2681  _C1       32.2900   32.2900    2.8751  _C1    1             0.000000
   2682  _C1       45.2060   32.2900    2.8751  _C1    1             0.000000
   2683  _C1       45.2060   45.2060    2.8751  _C1    1             0.000000
   2684  _C1       32.2900   45.2060    2.8751  _C1    1             0.000000
   2685  _C1       32.2900   45.2060   22.9569  _C1    1             0.000000
   2686  _C1       45.2060   45.2060   22.9569  _C1    1             0.000000
   2687  _C1       45.2060   32.2900   22.9569  _C1    1             0.000000
   2688  _C1       32.2900   32.2900   22.9569  _C1    1             0.000000
   2689  _C1       28.7071   32.2900    6.4580  _C1    1             0.000000
   2690  _C1       28.7071   45.2060    6.4580  _C1    1             0.000000
   2691  _C1       28.7071   45.2060   19.3740  _C1    1             0.000000
   2692  _C1       28.7071   32.2900   19.3740  _C1    1             0.000000
   2693  _C1       48.7889   32.2900   19.3740  _C1    1             0.000000
   2694  _C1       48.7889   45.2060   19.3740  _C1    1             0.000000
   2695  _C1       48.7889   45.2060    6.4580  _C1    1             0.000000
   2696  _C1       48.7889   32.2900    6.4580  _C1    1             0.000000
   2697  _C1       45.2060   28.7071    6.4580  _C1    1             0.000000
   2698  _C1       32.2900   28.7071    6.4580  _C1    1             0.000000
   2699  _C1       32.2900   28.7071   19.3740  _C1    1             0.000000
   2700  _C1       45.2060   28.7071   19.3740  _C1    1             0.000000
   2701  _C1       45.2060   48.7889   19.3740  _C1    1             0.000000
   2702  _C1       32.2900   48.7889   19.3740  _C1    1             0.000000
   2703  _C1       32.2900   48.7889    6.4580  _C1    1             0.000000
   2704  _C1       45.2060   48.7889    6.4580  _C1    1             0.000000
   2705  _C1       32.2900   45.2060   15.7911  _C1    1             0.000000
   2706  _C1       45.2060   45.2060   15.7911  _C1    1             0.000000
   2707  _C1       45.2060   32.2900   15.7911  _C1    1             0.000000
   2708  _C1       32.2900   32.2900   15.7911  _C1    1             0.000000
   2709  _C1       32.2900   32.2900   10.0409  _C1    1             0.000000
   2710  _C1       45.2060   32.2900   10.0409  _C1    1             0.000000
   2711  _C1       45.2060   45.2060   10.0409  _C1    1             0.000000
   2712  _C1       32.2900   45.2060   10.0409  _C1    1             0.000000
   2713  _C1       45.2060   41.6231   19.3740  _C1    1             0.000000
   2714  _C1       32.2900   41.6231   19.3740  _C1    1             0.000000
   2715  _C1       32.2900   41.6231    6.4580  _C1    1             0.000000
   2716  _C1       45.2060   41.6231    6.4580  _C1    1             0.000000
   2717  _C1       45.2060   35.8729    6.4580  _C1    1             0.000000
   2718  _C1       32.2900   35.8729    6.4580  _C1    1             0.000000
   2719  _C1       32.2900   35.8729   19.3740  _C1    1             0.000000
   2720  _C1       45.2060   35.8729   19.3740  _C1    1             0.000000
   2721  _C1       41.6231   32.2900   19.3740  _C1    1             0.000000
   2722  _C1       41.6231   45.2060   19.3740  _C1    1             0.000000
   2723  _C1       41.6231   45.2060    6.4580  _C1    1             0.000000
   2724  _C1       41.6231   32.2900    6.4580  _C1    1             0.000000
   2725  _C1       35.8729   32.2900    6.4580  _C1    1             0.000000
   2726  _C1       35.8729   45.2060    6.4580  _C1    1             0.000000
   2727  _C1       35.8729   45.2060   19.3740  _C1    1             0.000000
   2728  _C1       35.8729   32.2900   19.3740  _C1    1             0.000000
   2729  _C2       32.2900   32.2900    1.3898  _C2    1             0.000000
   2730  _C2       45.2060   32.2900    1.3898  _C2    1             0.000000
   2731  _C2       45.2060   45.2060    1.3898  _C2    1             0.000000
   2732  _C2       32.2900   45.2060    1.3898  _C2    1             0.000000
   2733  _C2       32.2900   45.2060   24.4422  _C2    1             0.000000
   2734  _C2       45.2060   45.2060   24.4422  _C2    1             0.000000
   2735  _C2       45.2060   32.2900   24.4422  _C2    1             0.000000
   2736  _C2       32.2900   32.2900   24.4422  _C2    1             0.000000
   2737  _C2       27.2218   32.2900    6.4580  _C2    1             0.000000
   2738  _C2       27.2218   45.2060    6.4580  _C2    1             0.000000
   2739  _C2       27.2218   45.2060   19.3740  _C2    1             0.000000
   2740  _C2       27.2218   32.2900   19.3740  _C2    1             0.000000
   2741  _C2       50.2742   32.2900   19.3740  _C2    1             0.000000
   2742  _C2       50.2742   45.2060   19.3740  _C2    1             0.000000
   2743  _C2       50.2742   45.2060    6.4580  _C2    1             0.000000
   2744  _C2       50.2742   32.2900    6.4580  _C2    1             0.000000
   2745  _C2       45.2060   27.2218    6.4580  _C2    1             0.000000
   2746  _C2       32.2900   27.2218    6.4580  _C2    1             0.000000
   2747  _C2       32.2900   27.2218   19.3740  _C2    1             0.000000
   2748  _C2       45.2060   27.2218   19.3740  _C2    1             0.000000
   2749  _C2       45.2060   50.2742   19.3740  _C2    1             0.000000
   2750  _C2       32.2900   50.2742   19.3740  _C2    1             0.000000
   2751  _C2       32.2900   50.2742    6.4580  _C2    1             0.000000
   2752  _C2       45.2060   50.2742    6.4580  _C2    1             0.000000
   2753  _C2       32.2900   45.2060   14.3058  _C2    1             0.000000
   2754  _C2       45.2060   45.2060   14.3058  _C2    1             0.000000
   2755  _C2       45.2060   32.2900   14.3058  _C2    1             0.000000
   2756  _C2       32.2900   32.2900   14.3058  _C2    1             0.000000
   2757  _C2       32.2900   32.2900   11.5262  _C2    1             0.000000
   2758  _C2       45.2060   32.2900   11.5262  _C2    1             0.000000
   2759  _C2       45.2060   45.2060   11.5262  _C2    1             0.000000
   2760  _C2       32.2900   45.2060   11.5262  _C2    1             0.000000
   2761  _C2       45.2060   40.1378   19.3740  _C2    1             0.000000
   2762  _C2       32.2900   40.1378   19.3740  _C2    1             0.000000
   2763  _C2       32.2900   40.1378    6.4580  _C2    1             0.000000
   2764  _C2       45.2060   40.1378    6.4580  _C2    1             0.000000
   2765  _C2       45.2060   37.3582    6.4580  _C2    1             0.000000
   2766  _C2       32.2900   37.3582    6.4580  _C2    1             0.000000
   2767  _C2       32.2900   37.3582   19.3740  _C2    1             0.000000
   2768  _C2       45.2060   37.3582   19.3740  _C2    1             0.000000
   2769  _C2       40.1378   32.2900   19.3740  _C2    1             0.000000
   2770  _C2       40.1378   45.2060   19.3740  _C2    1             0.000000
   2771  _C2       40.1378   45.2060    6.4580  _C2    1             0.000000
   2772  _C2       40.1378   32.2900    6.4580  _C2    1             0.000000
   2773  _C2       37.3582   32.2900    6.4580  _C2    1             0.000000
   2774  _C2       37.3582   45.2060    6.4580  _C2    1             0.000000
   2775  _C2       37.3582   45.2060   19.3740  _C2    1             0.000000
   2776  _C2       37.3582   32.2900   19.3740  _C2    1             0.000000
   2777  _C3       33.1399   31.4401    0.6949  _C3    1             0.000000
   2778  _C3       46.0559   33.1399    0.6949  _C3    1             0.000000
   2779  _C3       44.3561   46.0559    0.6949  _C3    1             0.000000
   2780  _C3       31.4401   44.3561    0.6949  _C3    1             0.000000
   2781  _C3       33.1399   46.0559   25.1371  _C3    1             0.000000
   2782  _C3       46.0559   44.3561   25.1371  _C3    1             0.000000
   2783  _C3       44.3561   31.4401   25.1371  _C3    1             0.000000
   2784  _C3       31.4401   33.1399   25.1371  _C3    1             0.000000
   2785  _C3       26.5269   33.1399    5.6081  _C3    1             0.000000
   2786  _C3       26.5269   46.0559    7.3079  _C3    1             0.000000
   2787  _C3       26.5269   44.3561   20.2239  _C3    1             0.000000
   2788  _C3       26.5269   31.4401   18.5241  _C3    1             0.000000
   2789  _C3       50.9691   33.1399   20.2239  _C3    1             0.000000
   2790  _C3       50.9691   46.0559   18.5241  _C3    1             0.000000
   2791  _C3       50.9691   44.3561    5.6081  _C3    1             0.000000
   2792  _C3       50.9691   31.4401    7.3079  _C3    1             0.000000
   2793  _C3       44.3561   26.5269    5.6081  _C3    1             0.000000
   2794  _C3       31.4401   26.5269    7.3079  _C3    1             0.000000
   2795  _C3       33.1399   26.5269   20.2239  _C3    1             0.000000
   2796  _C3       46.0559   26.5269   18.5241  _C3    1             0.000000
   2797  _C3       44.3561   50.9691   20.2239  _C3    1             0.000000
   2798  _C3       31.4401   50.9691   18.5241  _C3    1             0.000000
   2799  _C3       33.1399   50.9691    5.6081  _C3    1             0.000000
   2800  _C3       46.0559   50.9691    7.3079  _C3    1             0.000000
   2801  _C3       44.3561   46.0559   25.1371  _C3    1             0.000000
   2802  _C3       31.4401   44.3561   25.1371  _C3    1             0.000000
   2803  _C3       33.1399   31.4401   25.1371  _C3    1             0.000000
   2804  _C3       46.0559   33.1399   25.1371  _C3    1             0.000000
   2805  _C3       44.3561   31.4401    0.6949  _C3    1             0.000000
   2806  _C3       31.4401   33.1399    0.6949  _C3    1             0.000000
   2807  _C3       33.1399   46.0559    0.6949  _C3    1             0.000000
   2808  _C3       46.0559   44.3561    0.6949  _C3    1             0.000000
   2809  _C3       50.9691   44.3561   20.2239  _C3    1             0.000000
   2810  _C3       50.9691   31.4401   18.5241  _C3    1             0.000000
   2811  _C3       50.9691   33.1399    5.6081  _C3    1             0.000000
   2812  _C3       50.9691   46.0559    7.3079  _C3    1             0.000000
   2813  _C3       26.5269   44.3561    5.6081  _C3    1             0.000000
   2814  _C3       26.5269   31.4401    7.3079  _C3    1             0.000000
   2815  _C3       26.5269   33.1399   20.2239  _C3    1             0.000000
   2816  _C3       26.5269   46.0559   18.5241  _C3    1             0.000000
   2817  _C3       33.1399   50.9691   20.2239  _C3    1             0.000000
   2818  _C3       46.0559   50.9691   18.5241  _C3    1             0.000000
   2819  _C3       44.3561   50.9691    5.6081  _C3    1             0.000000
   2820  _C3       31.4401   50.9691    7.3079  _C3    1             0.000000
   2821  _C3       33.1399   26.5269    5.6081  _C3    1             0.000000
   2822  _C3       46.0559   26.5269    7.3079  _C3    1             0.000000
   2823  _C3       44.3561   26.5269   20.2239  _C3    1             0.000000
   2824  _C3       31.4401   26.5269   18.5241  _C3    1             0.000000
   2825  _C3       33.1399   44.3561   13.6109  _C3    1             0.000000
   2826  _C3       46.0559   46.0559   13.6109  _C3    1             0.000000
   2827  _C3       44.3561   33.1399   13.6109  _C3    1             0.000000
   2828  _C3       31.4401   31.4401   13.6109  _C3    1             0.000000
   2829  _C3       33.1399   33.1399   12.2211  _C3    1             0.000000
   2830  _C3       46.0559   31.4401   12.2211  _C3    1             0.000000
   2831  _C3       44.3561   44.3561   12.2211  _C3    1             0.000000
   2832  _C3       31.4401   46.0559   12.2211  _C3    1             0.000000
   2833  _C3       44.3561   39.4429   18.5241  _C3    1             0.000000
   2834  _C3       31.4401   39.4429   20.2239  _C3    1             0.000000
   2835  _C3       33.1399   39.4429    7.3079  _C3    1             0.000000
   2836  _C3       46.0559   39.4429    5.6081  _C3    1             0.000000
   2837  _C3       44.3561   38.0531    7.3079  _C3    1             0.000000
   2838  _C3       31.4401   38.0531    5.6081  _C3    1             0.000000
   2839  _C3       33.1399   38.0531   18.5241  _C3    1             0.000000
   2840  _C3       46.0559   38.0531   20.2239  _C3    1             0.000000
   2841  _C3       44.3561   33.1399   12.2211  _C3    1             0.000000
   2842  _C3       31.4401   31.4401   12.2211  _C3    1             0.000000
   2843  _C3       33.1399   44.3561   12.2211  _C3    1             0.000000
   2844  _C3       46.0559   46.0559   12.2211  _C3    1             0.000000
   2845  _C3       44.3561   44.3561   13.6109  _C3    1             0.000000
   2846  _C3       31.4401   46.0559   13.6109  _C3    1             0.000000
   2847  _C3       33.1399   33.1399   13.6109  _C3    1             0.000000
   2848  _C3       46.0559   31.4401   13.6109  _C3    1             0.000000
   2849  _C3       33.1399   38.0531    7.3079  _C3    1             0.000000
   2850  _C3       46.0559   38.0531    5.6081  _C3    1             0.000000
   2851  _C3       44.3561   38.0531   18.5241  _C3    1             0.000000
   2852  _C3       31.4401   38.0531   20.2239  _C3    1             0.000000
   2853  _C3       33.1399   39.4429   18.5241  _C3    1             0.000000
   2854  _C3       46.0559   39.4429   20.2239  _C3    1             0.000000
   2855  _C3       44.3561   39.4429    7.3079  _C3    1             0.000000
   2856  _C3       31.4401   39.4429    5.6081  _C3    1             0.000000
   2857  _C3       39.4429   33.1399   18.5241  _C3    1             0.000000
   2858  _C3       39.4429   46.0559   20.2239  _C3    1             0.000000
   2859  _C3       39.4429   44.3561    7.3079  _C3    1             0.000000
   2860  _C3       39.4429   31.4401    5.6081  _C3    1             0.000000
   2861  _C3       38.0531   33.1399    7.3079  _C3    1             0.000000
   2862  _C3       38.0531   46.0559    5.6081  _C3    1             0.000000
   2863  _C3       38.0531   44.3561   18.5241  _C3    1             0.000000
   2864  _C3       38.0531   31.4401   20.2239  _C3    1             0.000000
   2865  _C3       38.0531   44.3561    7.3079  _C3    1             0.000000
   2866  _C3       38.0531   31.4401    5.6081  _C3    1             0.000000
   2867  _C3       38.0531   33.1399   18.5241  _C3    1             0.000000
   2868  _C3       38.0531   46.0559   20.2239  _C3    1             0.000000
   2869  _C3       39.4429   44.3561   18.5241  _C3    1             0.000000
   2870  _C3       39.4429   31.4401   20.2239  _C3    1             0.000000
   2871  _C3       39.4429   33.1399    7.3079  _C3    1             0.000000
   2872  _C3       39.4429   46.0559    5.6081  _C3    1             0.000000
   2873  _H1       33.7082   30.8718    1.1573  _H1    1             0.000000
   2874  _H1       46.6242   33.7082    1.1573  _H1    1             0.000000
   2875  _H1       43.7878   46.6242    1.1573  _H1    1             0.000000
   2876  _H1       30.8718   43.7878    1.1573  _H1    1             0.000000
   2877  _H1       33.7082   46.6242   24.6747  _H1    1             0.000000
   2878  _H1       46.6242   43.7878   24.6747  _H1    1             0.000000
   2879  _H1       43.7878   30.8718   24.6747  _H1    1             0.000000
   2880  _H1       30.8718   33.7082   24.6747  _H1    1             0.000000
   2881  _H1       26.9893   33.7082    5.0398  _H1    1             0.000000
   2882  _H1       26.9893   46.6242    7.8762  _H1    1             0.000000
   2883  _H1       26.9893   43.7878   20.7922  _H1    1             0.000000
   2884  _H1       26.9893   30.8718   17.9558  _H1    1             0.000000
   2885  _H1       50.5067   33.7082   20.7922  _H1    1             0.000000
   2886  _H1       50.5067   46.6242   17.9558  _H1    1             0.000000
   2887  _H1       50.5067   43.7878    5.0398  _H1    1             0.000000
   2888  _H1       50.5067   30.8718    7.8762  _H1    1             0.000000
   2889  _H1       43.7878   26.9893    5.0398  _H1    1             0.000000
   2890  _H1       30.8718   26.9893    7.8762  _H1    1             0.000000
   2891  _H1       33.7082   26.9893   20.7922  _H1    1             0.000000
   2892  _H1       46.6242   26.9893   17.9558  _H1    1             0.000000
   2893  _H1       43.7878   50.5067   20.7922  _H1    1             0.000000
   2894  _H1       30.8718   50.5067   17.9558  _H1    1             0.000000
   2895  _H1       33.7082   50.5067    5.0398  _H1    1             0.000000
   2896  _H1       46.6242   50.5067    7.8762  _H1    1             0.000000
   2897  _H1       43.7878   46.6242   24.6747  _H1    1             0.000000
   2898  _H1       30.8718   43.7878   24.6747  _H1    1             0.000000
   2899  _H1       33.7082   30.8718   24.6747  _H1    1             0.000000
   2900  _H1       46.6242   33.7082   24.6747  _H1    1             0.000000
   2901  _H1       43.7878   30.8718    1.1573  _H1    1             0.000000
   2902  _H1       30.8718   33.7082    1.1573  _H1    1             0.000000
   2903  _H1       33.7082   46.6242    1.1573  _H1    1             0.000000
   2904  _H1       46.6242   43.7878    1.1573  _H1    1             0.000000
   2905  _H1       50.5067   43.7878   20.7922  _H1    1             0.000000
   2906  _H1       50.5067   30.8718   17.9558  _H1    1             0.000000
   2907  _H1       50.5067   33.7082    5.0398  _H1    1             0.000000
   2908  _H1       50.5067   46.6242    7.8762  _H1    1             0.000000
   2909  _H1       26.9893   43.7878    5.0398  _H1    1             0.000000
   2910  _H1       26.9893   30.8718    7.8762  _H1    1             0.000000
   2911  _H1       26.9893   33.7082   20.7922  _H1    1             0.000000
   2912  _H1       26.9893   46.6242   17.9558  _H1    1             0.000000
   2913  _H1       33.7082   50.5067   20.7922  _H1    1             0.000000
   2914  _H1       46.6242   50.5067   17.9558  _H1    1             0.000000
   2915  _H1       43.7878   50.5067    5.0398  _H1    1             0.000000
   2916  _H1       30.8718   50.5067    7.8762  _H1    1             0.000000
   2917  _H1       33.7082   26.9893    5.0398  _H1    1             0.000000
   2918  _H1       46.6242   26.9893    7.8762  _H1    1             0.000000
   2919  _H1       43.7878   26.9893   20.7922  _H1    1             0.000000
   2920  _H1       30.8718   26.9893   17.9558  _H1    1             0.000000
   2921  _H1       33.7082   43.7878   14.0733  _H1    1             0.000000
   2922  _H1       46.6242   46.6242   14.0733  _H1    1             0.000000
   2923  _H1       43.7878   33.7082   14.0733  _H1    1             0.000000
   2924  _H1       30.8718   30.8718   14.0733  _H1    1             0.000000
   2925  _H1       33.7082   33.7082   11.7587  _H1    1             0.000000
   2926  _H1       46.6242   30.8718   11.7587  _H1    1             0.000000
   2927  _H1       43.7878   43.7878   11.7587  _H1    1             0.000000
   2928  _H1       30.8718   46.6242   11.7587  _H1    1             0.000000
   2929  _H1       43.7878   39.9053   17.9558  _H1    1             0.000000
   2930  _H1       30.8718   39.9053   20.7922  _H1    1             0.000000
   2931  _H1       33.7082   39.9053    7.8762  _H1    1             0.000000
   2932  _H1       46.6242   39.9053    5.0398  _H1    1             0.000000
   2933  _H1       43.7878   37.5907    7.8762  _H1    1             0.000000
   2934  _H1       30.8718   37.5907    5.0398  _H1    1             0.000000
   2935  _H1       33.7082   37.5907   17.9558  _H1    1             0.000000
   2936  _H1       46.6242   37.5907   20.7922  _H1    1             0.000000
   2937  _H1       43.7878   33.7082   11.7587  _H1    1             0.000000
   2938  _H1       30.8718   30.8718   11.7587  _H1    1             0.000000
   2939  _H1       33.7082   43.7878   11.7587  _H1    1             0.000000
   2940  _H1       46.6242   46.6242   11.7587  _H1    1             0.000000
   2941  _H1       43.7878   43.7878   14.0733  _H1    1             0.000000
   2942  _H1       30.8718   46.6242   14.0733  _H1    1             0.000000
   2943  _H1       33.7082   33.7082   14.0733  _H1    1             0.000000
   2944  _H1       46.6242   30.8718   14.0733  _H1    1             0.000000
   2945  _H1       33.7082   37.5907    7.8762  _H1    1             0.000000
   2946  _H1       46.6242   37.5907    5.0398  _H1    1             0.000000
   2947  _H1       43.7878   37.5907   17.9558  _H1    1             0.000000
   2948  _H1       30.8718   37.5907   20.7922  _H1    1             0.000000
   2949  _H1       33.7082   39.9053   17.9558  _H1    1             0.000000
   2950  _H1       46.6242   39.9053   20.7922  _H1    1             0.000000
   2951  _H1       43.7878   39.9053    7.8762  _H1    1             0.000000
   2952  _H1       30.8718   39.9053    5.0398  _H1    1             0.000000
   2953  _H1       39.9053   33.7082   17.9558  _H1    1             0.000000
   2954  _H1       39.9053   46.6242   20.7922  _H1    1             0.000000
   2955  _H1       39.9053   43.7878    7.8762  _H1    1             0.000000
   2956  _H1       39.9053   30.8718    5.0398  _H1    1             0.000000
   2957  _H1       37.5907   33.7082    7.8762  _H1    1             0.000000
   2958  _H1       37.5907   46.6242    5.0398  _H1    1             0.000000
   2959  _H1       37.5907   43.7878   17.9558  _H1    1             0.000000
   2960  _H1       37.5907   30.8718   20.7922  _H1    1             0.000000
   2961  _H1       37.5907   43.7878    7.8762  _H1    1             0.000000
   2962  _H1       37.5907   30.8718    5.0398  _H1    1             0.000000
   2963  _H1       37.5907   33.7082   17.9558  _H1    1             0.000000
   2964  _H1       37.5907   46.6242   20.7922  _H1    1             0.000000
   2965  _H1       39.9053   43.7878   17.9558  _H1    1             0.000000
   2966  _H1       39.9053   30.8718   20.7922  _H1    1             0.000000
   2967  _H1       39.9053   33.7082    7.8762  _H1    1             0.000000
   2968  _H1       39.9053   46.6242    5.0398  _H1    1             0.000000
   2969 _Zn1       33.4111   31.1689   31.1689 _Zn1    1             0.000000
   2970 _Zn1       46.3271   33.4111   31.1689 _Zn1    1             0.000000
   2971 _Zn1       44.0849   46.3271   31.1689 _Zn1    1             0.000000
   2972 _Zn1       31.1689   44.0849   31.1689 _Zn1    1             0.000000
   2973 _Zn1       33.4111   46.3271   46.3271 _Zn1    1             0.000000
   2974 _Zn1       46.3271   44.0849   46.3271 _Zn1    1             0.000000
   2975 _Zn1       44.0849   31.1689   46.3271 _Zn1    1             0.000000
   2976 _Zn1       31.1689   33.4111   46.3271 _Zn1    1             0.000000
   2977 _Zn1       31.1689   33.4111   31.1689 _Zn1    1             0.000000
   2978 _Zn1       31.1689   46.3271   33.4111 _Zn1    1             0.000000
   2979 _Zn1       31.1689   44.0849   46.3271 _Zn1    1             0.000000
   2980 _Zn1       31.1689   31.1689   44.0849 _Zn1    1             0.000000
   2981 _Zn1       46.3271   33.4111   46.3271 _Zn1    1             0.000000
   2982 _Zn1       46.3271   46.3271   44.0849 _Zn1    1             0.000000
   2983 _Zn1       46.3271   44.0849   31.1689 _Zn1    1             0.000000
   2984 _Zn1       46.3271   31.1689   33.4111 _Zn1    1             0.000000
   2985 _Zn1       44.0849   31.1689   31.1689 _Zn1    1             0.000000
   2986 _Zn1       31.1689   31.1689   33.4111 _Zn1    1             0.000000
   2987 _Zn1       33.4111   31.1689   46.3271 _Zn1    1             0.000000
   2988 _Zn1       46.3271   31.1689   44.0849 _Zn1    1             0.000000
   2989 _Zn1       44.0849   46.3271   46.3271 _Zn1    1             0.000000
   2990 _Zn1       31.1689   46.3271   44.0849 _Zn1    1             0.000000
   2991 _Zn1       33.4111   46.3271   31.1689 _Zn1    1             0.000000
   2992 _Zn1       46.3271   46.3271   33.4111 _Zn1    1             0.000000
   2993 _Zn1       33.4111   44.0849   44.0849 _Zn1    1             0.000000
   2994 _Zn1       44.0849   33.4111   44.0849 _Zn1    1             0.000000
   2995 _Zn1       33.4111   33.4111   33.4111 _Zn1    1             0.000000
   2996 _Zn1       44.0849   44.0849   33.4111 _Zn1    1             0.000000
   2997 _Zn1       44.0849   44.0849   44.0849 _Zn1    1             0.000000
   2998 _Zn1       33.4111   44.0849   33.4111 _Zn1    1             0.000000
   2999 _Zn1       44.0849   33.4111   33.4111 _Zn1    1             0.000000
   3000 _Zn1       33.4111   33.4111   44.0849 _Zn1    1             0.000000
   3001  _O1       32.2900   32.2900   32.2900  _O1    1             0.000000
   3002  _O1       45.2060   32.2900   32.2900  _O1    1             0.000000
   3003  _O1       45.2060   45.2060   32.2900  _O1    1             0.000000
   3004  _O1       32.2900   45.2060   32.2900  _O1    1             0.000000
   3005  _O1       32.2900   45.2060   45.2060  _O1    1             0.000000
   3006  _O1       45.2060   45.2060   45.2060  _O1    1             0.000000
   3007  _O1       45.2060   32.2900   45.2060  _O1    1             0.000000
   3008  _O1       32.2900   32.2900   45.2060  _O1    1             0.000000
   3009  _O2       33.1140   31.4660   29.2935  _O2    1             0.000000
   3010  _O2       46.0300   33.1140   29.2935  _O2    1             0.000000
   3011  _O2       44.3820   46.0300   29.2935  _O2    1             0.000000
   3012  _O2       31.4660   44.3820   29.2935  _O2    1             0.000000
   3013  _O2       33.1140   46.0300   48.2025  _O2    1             0.000000
   3014  _O2       46.0300   44.3820   48.2025  _O2    1             0.000000
   3015  _O2       44.3820   31.4660   48.2025  _O2    1             0.000000
   3016  _O2       31.4660   33.1140   48.2025  _O2    1             0.000000
   3017  _O2       29.2935   33.1140   31.4660  _O2    1             0.000000
   3018  _O2       29.2935   46.0300   33.1140  _O2    1             0.000000
   3019  _O2       29.2935   44.3820   46.0300  _O2    1             0.000000
   3020  _O2       29.2935   31.4660   44.3820  _O2    1             0.000000
   3021  _O2       48.2025   33.1140   46.0300  _O2    1             0.000000
   3022  _O2       48.2025   46.0300   44.3820  _O2    1             0.000000
   3023  _O2       48.2025   44.3820   31.4660  _O2    1             0.000000
   3024  _O2       48.2025   31.4660   33.1140  _O2    1             0.000000
   3025  _O2       44.3820   29.2935   31.4660  _O2    1             0.000000
   3026  _O2       31.4660   29.2935   33.1140  _O2    1             0.000000
   3027  _O2       33.1140   29.2935   46.0300  _O2    1             0.000000
   3028  _O2       46.0300   29.2935   44.3820  _O2    1             0.000000
   3029  _O2       44.3820   48.2025   46.0300  _O2    1             0.000000
   3030  _O2       31.4660   48.2025   44.3820  _O2    1             0.000000
   3031  _O2       33.1140   48.2025   31.4660  _O2    1             0.000000
   3032  _O2       46.0300   48.2025   33.1140  _O2    1             0.000000
   3033  _O2       44.3820   46.0300   48.2025  _O2    1             0.000000
   3034  _O2       31.4660   44.3820   48.2025  _O2    1             0.000000
   3035  _O2       33.1140   31.4660   48.2025  _O2    1             0.000000
   3036  _O2       46.0300   33.1140   48.2025  _O2    1             0.000000
   3037  _O2       44.3820   31.4660   29.2935  _O2    1             0.000000
   3038  _O2       31.4660   33.1140   29.2935  _O2    1             0.000000
   3039  _O2       33.1140   46.0300   29.2935  _O2    1             0.000000
   3040  _O2       46.0300   44.3820   29.2935  _O2    1             0.000000
   3041  _O2       48.2025   44.3820   46.0300  _O2    1             0.000000
   3042  _O2       48.2025   31.4660   44.3820  _O2    1             0.000000
   3043  _O2       48.2025   33.1140   31.4660  _O2    1             0.000000
   3044  _O2       48.2025   46.0300   33.1140  _O2    1             0.000000
   3045  _O2       29.2935   44.3820   31.4660  _O2    1             0.000000
   3046  _O2       29.2935   31.4660   33.1140  _O2    1             0.000000
   3047  _O2       29.2935   33.1140   46.0300  _O2    1             0.000000
   3048  _O2       29.2935   46.0300   44.3820  _O2    1             0.000000
   3049  _O2       33.1140   48.2025   46.0300  _O2    1             0.000000
   3050  _O2       46.0300   48.2025   44.3820  _O2    1             0.000000
   3051  _O2       44.3820   48.2025   31.4660  _O2    1             0.000000
   3052  _O2       31.4660   48.2025   33.1140  _O2    1             0.000000
   3053  _O2       33.1140   29.2935   31.4660  _O2    1             0.000000
   3054  _O2       46.0300   29.2935   33.1140  _O2    1             0.000000
   3055  _O2       44.3820   29.2935   46.0300  _O2    1             0.000000
   3056  _O2       31.4660   29.2935   44.3820  _O2    1             0.000000
   3057  _O2       33.1140   44.3820   42.2095  _O2    1             0.000000
   3058  _O2       46.0300   46.0300   42.2095  _O2    1             0.000000
   3059  _O2       44.3820   33.1140   42.2095  _O2    1             0.000000
   3060  _O2       31.4660   31.4660   42.2095  _O2    1             0.000000
   3061  _O2       33.1140   33.1140   35.2865  _O2    1             0.000000
   3062  _O2       46.0300   31.4660   35.2865  _O2    1             0.000000
   3063  _O2       44.3820   44.3820   35.2865  _O2    1             0.000000
   3064  _O2       31.4660   46.0300   35.2865  _O2    1             0.000000
   3065  _O2       44.3820   42.2095   44.3820  _O2    1             0.000000
   3066  _O2       31.4660   42.2095   46.0300  _O2    1             0.000000
   3067  _O2       33.1140   42.2095   33.1140  _O2    1             0.000000
   3068  _O2       46.0300   42.2095   31.4660  _O2    1             0.000000
   3069  _O2       44.3820   35.2865   33.1140  _O2    1             0.000000
   3070  _O2       31.4660   35.2865   31.4660  _O2    1             0.000000
   3071  _O2       33.1140   35.2865   44.3820  _O2    1             0.000000
   3072  _O2       46.0300   35.2865   46.0300  _O2    1             0.000000
   3073  _O2       44.3820   33.1140   35.2865  _O2    1             0.000000
   3074  _O2       31.4660   31.4660   35.2865  _O2    1             0.000000
   3075  _O2       33.1140   44.3820   35.2865  _O2    1             0.000000
   3076  _O2       46.0300   46.0300   35.2865  _O2    1             0.000000
   3077  _O2       44.3820   44.3820   42.2095  _O2    1             0.000000
   3078  _O2       31.4660   46.0300   42.2095  _O2    1             0.000000
   3079  _O2       33.1140   33.1140   42.2095  _O2    1             0.000000
   3080  _O2       46.0300   31.4660   42.2095  _O2    1             0.000000
   3081  _O2       33.1140   35.2865   33.1140  _O2    1             0.000000
   3082  _O2       46.0300   35.2865   31.4660  _O2    1             0.000000
   3083  _O2       44.3820   35.2865   44.3820  _O2    1             0.000000
   3084  _O2       31.4660   35.2865   46.0300  _O2    1             0.000000
   3085  _O2       33.1140   42.2095   44.3820  _O2    1             0.000000
   3086  _O2       46.0300   42.2095   46.0300  _O2    1             0.000000
   3087  _O2       44.3820   42.2095   33.1140  _O2    1             0.000000
   3088  _O2       31.4660   42.2095   31.4660  _O2    1             0.000000
   3089  _O2       42.2095   33.1140   44.3820  _O2    1             0.000000
   3090  _O2       42.2095   46.0300   46.0300  _O2    1             0.000000
   3091  _O2       42.2095   44.3820   33.1140  _O2    1             0.000000
   3092  _O2       42.2095   31.4660   31.4660  _O2    1             0.000000
   3093  _O2       35.2865   33.1140   33.1140  _O2    1             0.000000
   3094  _O2       35.2865   46.0300   31.4660  _O2    1             0.000000
   3095  _O2       35.2865   44.3820   44.3820  _O2    1             0.000000
   3096  _O2       35.2865   31.4660   46.0300  _O2    1             0.000000
   3097  _O2       35.2865   44.3820   33.1140  _O2    1             0.000000
   3098  _O2       35.2865   31.4660   31.4660  _O2    1             0.000000
   3099  _O2       35.2865   33.1140   44.3820  _O2    1             0.000000
   3100  _O2       35.2865   46.0300   46.0300  _O2    1             0.000000
   3101  _O2       42.2095   44.3820   44.3820  _O2    1             0.000000
   3102  _O2       42.2095   31.4660   46.0300  _O2    1             0.000000
   3103  _O2       42.2095   33.1140   33.1140  _O2    1             0.000000
   3104  _O2       42.2095   46.0300   31.4660  _O2    1             0.000000
   3105  _C1       32.2900   32.2900   28.7071  _C1    1             0.000000
   3106  _C1       45.2060   32.2900   28.7071  _C1    1             0.000000
   3107  _C1       45.2060   45.2060   28.7071  _C1    1             0.000000
   3108  _C1       32.2900   45.2060   28.7071  _C1    1             0.000000
   3109  _C1       32.2900   45.2060   48.7889  _C1    1             0.000000
   3110  _C1       45.2060   45.2060   48.7889  _C1    1             0.000000
   3111  _C1       45.2060   32.2900   48.7889  _C1    1             0.000000
   3112  _C1       32.2900   32.2900   48.7889  _C1    1             0.000000
   3113  _C1       28.7071   32.2900   32.2900  _C1    1             0.000000
   3114  _C1       28.7071   45.2060   32.2900  _C1    1             0.000000
   3115  _C1       28.7071   45.2060   45.2060  _C1    1             0.000000
   3116  _C1       28.7071   32.2900   45.2060  _C1    1             0.000000
   3117  _C1       48.7889   32.2900   45.2060  _C1    1             0.000000
   3118  _C1       48.7889   45.2060   45.2060  _C1    1             0.000000
   3119  _C1       48.7889   45.2060   32.2900  _C1    1             0.000000
   3120  _C1       48.7889   32.2900   32.2900  _C1    1             0.000000
   3121  _C1       45.2060   28.7071   32.2900  _C1    1             0.000000
   3122  _C1       32.2900   28.7071   32.2900  _C1    1             0.000000
   3123  _C1       32.2900   28.7071   45.2060  _C1    1             0.000000
   3124  _C1       45.2060   28.7071   45.2060  _C1    1             0.000000
   3125  _C1       45.2060   48.7889   45.2060  _C1    1             0.000000
   3126  _C1       32.2900   48.7889   45.2060  _C1    1             0.000000
   3127  _C1       32.2900   48.7889   32.2900  _C1    1             0.000000
   3128  _C1       45.2060   48.7889   32.2900  _C1    1             0.000000
   3129  _C1       32.2900   45.2060   41.6231  _C1    1             0.000000
   3130  _C1       45.2060   45.2060   41.6231  _C1    1             0.000000
   3131  _C1       45.2060   32.2900   41.6231  _C1    1             0.000000
   3132  _C1       32.2900   32.2900   41.6231  _C1    1             0.000000
   3133  _C1       32.2900   32.2900   35.8729  _C1    1             0.000000
   3134  _C1       45.2060   32.2900   35.8729  _C1    1             0.000000
   3135  _C1       45.2060   45.2060   35.8729  _C1    1             0.000000
   3136  _C1       32.2900   45.2060   35.8729  _C1    1             0.000000
   3137  _C1       45.2060   41.6231   45.2060  _C1    1             0.000000
   3138  _C1       32.2900   41.6231   45.2060  _C1    1             0.000000
   3139  _C1       32.2900   41.6231   32.2900  _C1    1             0.000000
   3140  _C1       45.2060   41.6231   32.2900  _C1    1             0.000000
   3141  _C1       45.2060   35.8729   32.2900  _C1    1             0.000000
   3142  _C1       32.2900   35.8729   32.2900  _C1    1             0.000000
   3143  _C1       32.2900   35.8729   45.2060  _C1    1             0.000000
   3144  _C1       45.2060   35.8729   45.2060  _C1    1             0.000000
   3145  _C1       41.6231   32.2900   45.2060  _C1    1             0.000000
   3146  _C1       41.6231   45.2060   45.2060  _C1    1             0.000000
   3147  _C1       41.6231   45.2060   32.2900  _C1    1             0.000000
   3148  _C1       41.6231   32.2900   32.2900  _C1    1             0.000000
   3149  _C1       35.8729   32.2900   32.2900  _C1    1             0.000000
   3150  _C1       35.8729   45.2060   32.2900  _C1    1             0.000000
   3151  _C1       35.8729   45.2060   45.2060  _C1    1             0.000000
   3152  _C1       35.8729   32.2900   45.2060  _C1    1             0.000000
   3153  _C2       32.2900   32.2900   27.2218  _C2    1             0.000000
   3154  _C2       45.2060   32.2900   27.2218  _C2    1             0.000000
   3155  _C2       45.2060   45.2060   27.2218  _C2    1             0.000000
   3156  _C2       32.2900   45.2060   27.2218  _C2    1             0.000000
   3157  _C2       32.2900   45.2060   50.2742  _C2    1             0.000000
   3158  _C2       45.2060   45.2060   50.2742  _C2    1             0.000000
   3159  _C2       45.2060   32.2900   50.2742  _C2    1             0.000000
   3160  _C2       32.2900   32.2900   50.2742  _C2    1             0.000000
   3161  _C2       27.2218   32.2900   32.2900  _C2    1             0.000000
   3162  _C2       27.2218   45.2060   32.2900  _C2    1             0.000000
   3163  _C2       27.2218   45.2060   45.2060  _C2    1             0.000000
   3164  _C2       27.2218   32.2900   45.2060  _C2    1             0.000000
   3165  _C2       50.2742   32.2900   45.2060  _C2    1             0.000000
   3166  _C2       50.2742   45.2060   45.2060  _C2    1             0.000000
   3167  _C2       50.2742   45.2060   32.2900  _C2    1             0.000000
   3168  _C2       50.2742   32.2900   32.2900  _C2    1             0.000000
   3169  _C2       45.2060   27.2218   32.2900  _C2    1             0.000000
   3170  _C2       32.2900   27.2218   32.2900  _C2    1             0.000000
   3171  _C2       32.2900   27.2218   45.2060  _C2    1             0.000000
   3172  _C2       45.2060   27.2218   45.2060  _C2    1             0.000000
   3173  _C2       45.2060   50.2742   45.2060  _C2    1             0.000000
   3174  _C2       32.2900   50.2742   45.2060  _C2    1             0.000000
   3175  _C2       32.2900   50.2742   32.2900  _C2    1             0.000000
   3176  _C2       45.2060   50.2742   32.2900  _C2    1             0.000000
   3177  _C2       32.2900   45.2060   40.1378  _C2    1             0.000000
   3178  _C2       45.2060   45.2060   40.1378  _C2    1             0.000000
   3179  _C2       45.2060   32.2900   40.1378  _C2    1             0.000000
   3180  _C2       32.2900   32.2900   40.1378  _C2    1             0.000000
   3181  _C2       32.2900   32.2900   37.3582  _C2    1             0.000000
   3182  _C2       45.2060   32.2900   37.3582  _C2    1             0.000000
   3183  _C2       45.2060   45.2060   37.3582  _C2    1             0.000000
   3184  _C2       32.2900   45.2060   37.3582  _C2    1             0.000000
   3185  _C2       45.2060   40.1378   45.2060  _C2    1             0.000000
   3186  _C2       32.2900   40.1378   45.2060  _C2    1             0.000000
   3187  _C2       32.2900   40.1378   32.2900  _C2    1             0.000000
   3188  _C2       45.2060   40.1378   32.2900  _C2    1             0.000000
   3189  _C2       45.2060   37.3582   32.2900  _C2    1             0.000000
   3190  _C2       32.2900   37.3582   32.2900  _C2    1             0.000000
   3191  _C2       32.2900   37.3582   45.2060  _C2    1             0.000000
   3192  _C2       45.2060   37.3582   45.2060  _C2    1             0.000000
   3193  _C2       40.1378   32.2900   45.2060  _C2    1             0.000000
   3194  _C2       40.1378   45.2060   45.2060  _C2    1             0.000000
   3195  _C2       40.1378   45.2060   32.2900  _C2    1             0.000000
   3196  _C2       40.1378   32.2900   32.2900  _C2    1             0.000000
   3197  _C2       37.3582   32.2900   32.2900  _C2    1             0.000000
   3198  _C2       37.3582   45.2060   32.2900  _C2    1             0.000000
   3199  _C2       37.3582   45.2060   45.2060  _C2    1             0.000000
   3200  _C2       37.3582   32.2900   45.2060  _C2    1             0.000000
   3201  _C3       33.1399   31.4401   26.5269  _C3    1             0.000000
   3202  _C3       46.0559   33.1399   26.5269  _C3    1             0.000000
   3203  _C3       44.3561   46.0559   26.5269  _C3    1             0.000000
   3204  _C3       31.4401   44.3561   26.5269  _C3    1             0.000000
   3205  _C3       33.1399   46.0559   50.9691  _C3    1             0.000000
   3206  _C3       46.0559   44.3561   50.9691  _C3    1             0.000000
   3207  _C3       44.3561   31.4401   50.9691  _C3    1             0.000000
   3208  _C3       31.4401   33.1399   50.9691  _C3    1             0.000000
   3209  _C3       26.5269   33.1399   31.4401  _C3    1             0.000000
   3210  _C3       26.5269   46.0559   33.1399  _C3    1             0.000000
   3211  _C3       26.5269   44.3561   46.0559  _C3    1             0.000000
   3212  _C3       26.5269   31.4401   44.3561  _C3    1             0.000000
   3213  _C3       50.9691   33.1399   46.0559  _C3    1             0.000000
   3214  _C3       50.9691   46.0559   44.3561  _C3    1             0.000000
   3215  _C3       50.9691   44.3561   31.4401  _C3    1             0.000000
   3216  _C3       50.9691   31.4401   33.1399  _C3    1             0.000000
   3217  _C3       44.3561   26.5269   31.4401  _C3    1             0.000000
   3218  _C3       31.4401   26.5269   33.1399  _C3    1             0.000000
   3219  _C3       33.1399   26.5269   46.0559  _C3    1             0.000000
   3220  _C3       46.0559   26.5269   44.3561  _C3    1             0.000000
   3221  _C3       44.3561   50.9691   46.0559  _C3    1             0.000000
   3222  _C3       31.4401   50.9691   44.3561  _C3    1             0.000000
   3223  _C3       33.1399   50.9691   31.4401  _C3    1             0.000000
   3224  _C3       46.0559   50.9691   33.1399  _C3    1             0.000000
   3225  _C3       44.3561   46.0559   50.9691  _C3    1             0.000000
   3226  _C3       31.4401   44.3561   50.9691  _C3    1             0.000000
   3227  _C3       33.1399   31.4401   50.9691  _C3    1             0.000000
   3228  _C3       46.0559   33.1399   50.9691  _C3    1             0.000000
   3229  _C3       44.3561   31.4401   26.5269  _C3    1             0.000000
   3230  _C3       31.4401   33.1399   26.5269  _C3    1             0.000000
   3231  _C3       33.1399   46.0559   26.5269  _C3    1             0.000000
   3232  _C3       46.0559   44.3561   26.5269  _C3    1             0.000000
   3233  _C3       50.9691   44.3561   46.0559  _C3    1             0.000000
   3234  _C3       50.9691   31.4401   44.3561  _C3    1             0.000000
   3235  _C3       50.9691   33.1399   31.4401  _C3    1             0.000000
   3236  _C3       50.9691   46.0559   33.1399  _C3    1             0.000000
   3237  _C3       26.5269   44.3561   31.4401  _C3    1             0.000000
   3238  _C3       26.5269   31.4401   33.1399  _C3    1             0.000000
   3239  _C3       26.5269   33.1399   46.0559  _C3    1             0.000000
   3240  _C3       26.5269   46.0559   44.3561  _C3    1             0.000000
   3241  _C3       33.1399   50.9691   46.0559  _C3    1             0.000000
   3242  _C3       46.0559   50.9691   44.3561  _C3    1             0.000000
   3243  _C3       44.3561   50.9691   31.4401  _C3    1             0.000000
   3244  _C3       31.4401   50.9691   33.1399  _C3    1             0.000000
   3245  _C3       33.1399   26.5269   31.4401  _C3    1             0.000000
   3246  _C3       46.0559   26.5269   33.1399  _C3    1             0.000000
   3247  _C3       44.3561   26.5269   46.0559  _C3    1             0.000000
   3248  _C3       31.4401   26.5269   44.3561  _C3    1             0.000000
   3249  _C3       33.1399   44.3561   39.4429  _C3    1             0.000000
   3250  _C3       46.0559   46.0559   39.4429  _C3    1             0.000000
   3251  _C3       44.3561   33.1399   39.4429  _C3    1             0.000000
   3252  _C3       31.4401   31.4401   39.4429  _C3    1             0.000000
   3253  _C3       33.1399   33.1399   38.0531  _C3    1             0.000000
   3254  _C3       46.0559   31.4401   38.0531  _C3    1             0.000000
   3255  _C3       44.3561   44.3561   38.0531  _C3    1             0.000000
   3256  _C3       31.4401   46.0559   38.0531  _C3    1             0.000000
   3257  _C3       44.3561   39.4429   44.3561  _C3    1             0.000000
   3258  _C3       31.4401   39.4429   46.0559  _C3    1             0.000000
   3259  _C3       33.1399   39.4429   33.1399  _C3    1             0.000000
   3260  _C3       46.0559   39.4429   31.4401  _C3    1             0.000000
   3261  _C3       44.3561   38.0531   33.1399  _C3    1             0.000000
   3262  _C3       31.4401   38.0531   31.4401  _C3    1             0.000000
   3263  _C3       33.1399   38.0531   44.3561  _C3    1             0.000000
   3264  _C3       46.0559   38.0531   46.0559  _C3    1             0.000000
   3265  _C3       44.3561   33.1399   38.0531  _C3    1             0.000000
   3266  _C3       31.4401   31.4401   38.0531  _C3    1             0.000000
   3267  _C3       33.1399   44.3561   38.0531  _C3    1             0.000000
   3268  _C3       46.0559   46.0559   38.0531  _C3    1             0.000000
   3269  _C3       44.3561   44.3561   39.4429  _C3    1             0.000000
   3270  _C3       31.4401   46.0559   39.4429  _C3    1             0.000000
   3271  _C3       33.1399   33.1399   39.4429  _C3    1             0.000000
   3272  _C3       46.0559   31.4401   39.4429  _C3    1             0.000000
   3273  _C3       33.1399   38.0531   33.1399  _C3    1             0.000000
   3274  _C3       46.0559   38.0531   31.4401  _C3    1             0.000000
   3275  _C3       44.3561   38.0531   44.3561  _C3    1             0.000000
   3276  _C3       31.4401   38.0531   46.0559  _C3    1             0.000000
   3277  _C3       33.1399   39.4429   44.3561  _C3    1             0.000000
   3278  _C3       46.0559   39.4429   46.0559  _C3    1             0.000000
   3279  _C3       44.3561   39.4429   33.1399  _C3    1             0.000000
   3280  _C3       31.4401   39.4429   31.4401  _C3    1             0.000000
   3281  _C3       39.4429   33.1399   44.3561  _C3    1             0.000000
   3282  _C3       39.4429   46.0559   46.0559  _C3    1             0.000000
   3283  _C3       39.4429   44.3561   33.1399  _C3    1             0.000000
   3284  _C3       39.4429   31.4401   31.4401  _C3    1             0.000000
   3285  _C3       38.0531   33.1399   33.1399  _C3    1             0.000000
   3286  _C3       38.0531   46.0559   31.4401  _C3    1             0.000000
   3287  _C3       38.0531   44.3561   44.3561  _C3    1             0.000000
   3288  _C3       38.0531   31.4401   46.0559  _C3    1             0.000000
   3289  _C3       38.0531   44.3561   33.1399  _C3    1             0.000000
   3290  _C3       38.0531   31.4401   31.4401  _C3    1             0.000000
   3291  _C3       38.0531   33.1399   44.3561  _C3    1             0.000000
   3292  _C3       38.0531   46.0559   46.0559  _C3    1             0.000000
   3293  _C3       39.4429   44.3561   44.3561  _C3    1             0.000000
   3294  _C3       39.4429   31.4401   46.0559  _C3    1             0.000000
   3295  _C3       39.4429   33.1399   33.1399  _C3    1             0.000000
   3296  _C3       39.4429   46.0559   31.4401  _C3    1             0.000000
   3297  _H1       33.7082   30.8718   26.9893  _H1    1             0.000000
   3298  _H1       46.6242   33.7082   26.9893  _H1    1             0.000000
   3299  _H1       43.7878   46.6242   26.9893  _H1    1             0.000000
   3300  _H1       30.8718   43.7878   26.9893  _H1    1             0.000000
   3301  _H1       33.7082   46.6242   50.5067  _H1    1             0.000000
   3302  _H1       46.6242   43.7878   50.5067  _H1    1             0.000000
   3303  _H1       43.7878   30.8718   50.5067  _H1    1             0.000000
   3304  _H1       30.8718   33.7082   50.5067  _H1    1             0.000000
   3305  _H1       26.9893   33.7082   30.8718  _H1    1             0.000000
   3306  _H1       26.9893   46.6242   33.7082  _H1    1             0.000000
   3307  _H1       26.9893   43.7878   46.6242  _H1    1             0.000000
   3308  _H1       26.9893   30.8718   43.7878  _H1    1             0.000000
   3309  _H1       50.5067   33.7082   46.6242  _H1    1             0.000000
   3310  _H1       50.5067   46.6242   43.7878  _H1    1             0.000000
   3311  _H1       50.5067   43.7878   30.8718  _H1    1             0.000000
   3312  _H1       50.5067   30.8718   33.7082  _H1    1             0.000000
   3313  _H1       43.7878   26.9893   30.8718  _H1    1             0.000000
   3314  _H1       30.8718   26.9893   33.7082  _H1    1             0.000000
   3315  _H1       33.7082   26.9893   46.6242  _H1    1             0.000000
   3316  _H1       46.6242   26.9893   43.7878  _H1    1             0.000000
   3317  _H1       43.7878   50.5067   46.6242  _H1    1             0.000000
   3318  _H1       30.8718   50.5067   43.7878  _H1    1             0.000000
   3319  _H1       33.7082   50.5067   30.8718  _H1    1             0.000000
   3320  _H1       46.6242   50.5067   33.7082  _H1    1             0.000000
   3321  _H1       43.7878   46.6242   50.5067  _H1    1             0.000000
   3322  _H1       30.8718   43.7878   50.5067  _H1    1             0.000000
   3323  _H1       33.7082   30.8718   50.5067  _H1    1             0.000000
   3324  _H1       46.6242   33.7082   50.5067  _H1    1             0.000000
   3325  _H1       43.7878   30.8718   26.9893  _H1    1             0.000000
   3326  _H1       30.8718   33.7082   26.9893  _H1    1             0.000000
   3327  _H1       33.7082   46.6242   26.9893  _H1    1             0.000000
   3328  _H1       46.6242   43.7878   26.9893  _H1    1             0.000000
   3329  _H1       50.5067   43.7878   46.6242  _H1    1             0.000000
   3330  _H1       50.5067   30.8718   43.7878  _H1    1             0.000000
   3331  _H1       50.5067   33.7082   30.8718  _H1    1             0.000000
   3332  _H1       50.5067   46.6242   33.7082  _H1    1             0.000000
   3333  _H1       26.9893   43.7878   30.8718  _H1    1             0.000000
   3334  _H1       26.9893   30.8718   33.7082  _H1    1             0.000000
   3335  _H1       26.9893   33.7082   46.6242  _H1    1             0.000000
   3336  _H1       26.9893   46.6242   43.7878  _H1    1             0.000000
   3337  _H1       33.7082   50.5067   46.6242  _H1    1             0.000000
   3338  _H1       46.6242   50.5067   43.7878  _H1    1             0.000000
   3339  _H1       43.7878   50.5067   30.8718  _H1    1             0.000000
   3340  _H1       30.8718   50.5067   33.7082  _H1    1             0.000000
   3341  _H1       33.7082   26.9893   30.8718  _H1    1             0.000000
   3342  _H1       46.6242   26.9893   33.7082  _H1    1             0.000000
   3343  _H1       43.7878   26.9893   46.6242  _H1    1             0.000000
   3344  _H1       30.8718   26.9893   43.7878  _H1    1             0.000000
   3345  _H1       33.7082   43.7878   39.9053  _H1    1             0.000000
   3346  _H1       46.6242   46.6242   39.9053  _H1    1             0.000000
   3347  _H1       43.7878   33.7082   39.9053  _H1    1             0.000000
   3348  _H1       30.8718   30.8718   39.9053  _H1    1             0.000000
   3349  _H1       33.7082   33.7082   37.5907  _H1    1             0.000000
   3350  _H1       46.6242   30.8718   37.5907  _H1    1             0.000000
   3351  _H1       43.7878   43.7878   37.5907  _H1    1             0.000000
   3352  _H1       30.8718   46.6242   37.5907  _H1    1             0.000000
   3353  _H1       43.7878   39.9053   43.7878  _H1    1             0.000000
   3354  _H1       30.8718   39.9053   46.6242  _H1    1             0.000000
   3355  _H1       33.7082   39.9053   33.7082  _H1    1             0.000000
   3356  _H1       46.6242   39.9053   30.8718  _H1    1             0.000000
   3357  _H1       43.7878   37.5907   33.7082  _H1    1             0.000000
   3358  _H1       30.8718   37.5907   30.8718  _H1    1             0.000000
   3359  _H1       33.7082   37.5907   43.7878  _H1    1             0.000000
   3360  _H1       46.6242   37.5907   46.6242  _H1    1             0.000000
   3361  _H1       43.7878   33.7082   37.5907  _H1    1             0.000000
   3362  _H1       30.8718   30.8718   37.5907  _H1    1             0.000000
   3363  _H1       33.7082   43.7878   37.5907  _H1    1             0.000000
   3364  _H1       46.6242   46.6242   37.5907  _H1    1             0.000000
   3365  _H1       43.7878   43.7878   39.9053  _H1    1             0.000000
   3366  _H1       30.8718   46.6242   39.9053  _H1    1             0.000000
   3367  _H1       33.7082   33.7082   39.9053  _H1    1             0.000000
   3368  _H1       46.6242   30.8718   39.9053  _H1    1             0.000000
   3369  _H1       33.7082   37.5907   33.7082  _H1    1             0.000000
   3370  _H1       46.6242   37.5907   30.8718  _H1    1             0.000000
   3371  _H1       43.7878   37.5907   43.7878  _H1    1             0.000000
   3372  _H1       30.8718   37.5907   46.6242  _H1    1             0.000000
   3373  _H1       33.7082   39.9053   43.7878  _H1    1             0.000000
   3374  _H1       46.6242   39.9053   46.6242  _H1    1             0.000000
   3375  _H1       43.7878   39.9053   33.7082  _H1    1             0.000000
   3376  _H1       30.8718   39.9053   30.8718  _H1    1             0.000000
   3377  _H1       39.9053   33.7082   43.7878  _H1    1             0.000000
   3378  _H1       39.9053   46.6242   46.6242  _H1    1             0.000000
   3379  _H1       39.9053   43.7878   33.7082  _H1    1             0.000000
   3380  _H1       39.9053   30.8718   30.8718  _H1    1             0.000000
   3381  _H1       37.5907   33.7082   33.7082  _H1    1             0.000000
   3382  _H1       37.5907   46.6242   30.8718  _H1    1             0.000000
   3383  _H1       37.5907   43.7878   43.7878  _H1    1             0.000000
   3384  _H1       37.5907   30.8718   46.6242  _H1    1             0.000000
   3385  _H1       37.5907   43.7878   33.7082  _H1    1             0.000000
   3386  _H1       37.5907   30.8718   30.8718  _H1    1             0.000000
   3387  _H1       37.5907   33.7082   43.7878  _H1    1             0.000000
   3388  _H1       37.5907   46.6242   46.6242  _H1    1             0.000000
   3389  _H1       39.9053   43.7878   43.7878  _H1    1             0.000000
   3390  _H1       39.9053   30.8718   46.6242  _H1    1             0.000000
   3391  _H1       39.9053   33.7082   33.7082  _H1    1             0.000000
   3392  _H1       39.9053   46.6242   30.8718  _H1    1             0.000000
@<TRIPOS>BOND
    1    41   137  1
    2    42   138  1
    3    43   139  1
    4    44   140  1
    5    45   141  1
    6    46   142  1
    7    47   143  1
    8    48   144  1
    9    49   145  1
   10    50   146  1
   11    51   147  1
   12    52   148  1
   13    53   149  1
   14    54   150  1
   15    55   151  1
   16    56   152  1
   17    57   153  1
   18    58   154  1
   19    59   155  1
   20    60   156  1
   21    61   157  1
   22    62   158  1
   23    63   159  1
   24    64   160  1
   25    65   142  1
   26    66   141  1
   27    67   144  1
   28    68   143  1
   29    69   138  1
   30    70   137  1
   31    71   140  1
   32    72   139  1
   33    73   150  1
   34    74   149  1
   35    75   152  1
   36    76   151  1
   37    77   146  1
   38    78   145  1
   39    79   148  1
   40    80   147  1
   41    81   158  1
   42    82   157  1
   43    83   160  1
   44    84   159  1
   45    85   154  1
   46    86   153  1
   47    87   156  1
   48    88   155  1
   49    89   161  1
   50    90   162  1
   51    91   163  1
   52    92   164  1
   53    93   165  1
   54    94   166  1
   55    95   167  1
   56    96   168  1
   57    97   169  1
   58    98   170  1
   59    99   171  1
   60   100   172  1
   61   101   173  1
   62   102   174  1
   63   103   175  1
   64   104   176  1
   65   105   166  1
   66   106   165  1
   67   107   168  1
   68   108   167  1
   69   109   162  1
   70   110   161  1
   71   111   164  1
   72   112   163  1
   73   113   174  1
   74   114   173  1
   75   115   176  1
   76   116   175  1
   77   117   170  1
   78   118   169  1
   79   119   172  1
   80   120   171  1
   81   121   177  1
   82   122   178  1
   83   123   179  1
   84   124   180  1
   85   125   181  1
   86   126   182  1
   87   127   183  1
   88   128   184  1
   89   129   182  1
   90   130   181  1
   91   131   184  1
   92   132   183  1
   93   133   178  1
   94   134   177  1
   95   135   180  1
   96   136   179  1
   97   137   185  1
   98   138   186  1
   99   139   187  1
  100   140   188  1
  101   141   189  1
  102   142   190  1
  103   143   191  1
  104   144   192  1
  105   145   193  1
  106   146   194  1
  107   147   195  1
  108   148   196  1
  109   149   197  1
  110   150   198  1
  111   151   199  1
  112   152   200  1
  113   153   201  1
  114   154   202  1
  115   155   203  1
  116   156   204  1
  117   157   205  1
  118   158   206  1
  119   159   207  1
  120   160   208  1
  121   161   209  1
  122   162   210  1
  123   163   211  1
  124   164   212  1
  125   165   213  1
  126   166   214  1
  127   167   215  1
  128   168   216  1
  129   169   217  1
  130   170   218  1
  131   171   219  1
  132   172   220  1
  133   173   221  1
  134   174   222  1
  135   175   223  1
  136   176   224  1
  137   177   225  1
  138   178   226  1
  139   179   227  1
  140   180   228  1
  141   181   229  1
  142   182   230  1
  143   183   231  1
  144   184   232  1
  145   185   262  1
  146   185   233  1
  147   186   234  1
  148   186   261  1
  149   187   235  1
  150   187   264  1
  151   188   263  1
  152   188   236  1
  153   189   258  1
  154   189   237  1
  155   190   257  1
  156   190   238  1
  157   191   239  1
  158   191   260  1
  159   192   240  1
  160   192   259  1
  161   193   270  1
  162   193   241  1
  163   194   242  1
  164   194   269  1
  165   195   243  1
  166   195   272  1
  167   196   271  1
  168   196   244  1
  169   197   266  1
  170   197   245  1
  171   198   265  1
  172   198   246  1
  173   199   247  1
  174   199   268  1
  175   200   248  1
  176   200   267  1
  177   201   278  1
  178   201   249  1
  179   202   250  1
  180   202   277  1
  181   203   251  1
  182   203   280  1
  183   204   279  1
  184   204   252  1
  185   205   253  1
  186   205   274  1
  187   206   254  1
  188   206   273  1
  189   207   276  1
  190   207   255  1
  191   208   275  1
  192   208   256  1
  193   209   302  1
  194   209   281  1
  195   210   282  1
  196   210   301  1
  197   211   283  1
  198   211   304  1
  199   212   303  1
  200   212   284  1
  201   213   285  1
  202   213   298  1
  203   214   297  1
  204   214   286  1
  205   215   300  1
  206   215   287  1
  207   216   288  1
  208   216   299  1
  209   217   310  1
  210   217   289  1
  211   218   290  1
  212   218   309  1
  213   219   291  1
  214   219   312  1
  215   220   311  1
  216   220   292  1
  217   221   293  1
  218   221   306  1
  219   222   305  1
  220   222   294  1
  221   223   308  1
  222   223   295  1
  223   224   296  1
  224   224   307  1
  225   225   326  1
  226   225   313  1
  227   226   314  1
  228   226   325  1
  229   227   315  1
  230   227   328  1
  231   228   327  1
  232   228   316  1
  233   229   317  1
  234   229   322  1
  235   230   321  1
  236   230   318  1
  237   231   324  1
  238   231   319  1
  239   232   320  1
  240   232   323  1
  241   233   329  1
  242   233   683  1
  243   234   684  1
  244   234   330  1
  245   235   681  1
  246   235   331  1
  247   236   332  1
  248   236   682  1
  249   237   687  1
  250   237   333  1
  251   238   688  1
  252   238   334  1
  253   239   685  1
  254   239   335  1
  255   240   686  1
  256   240   336  1
  257   241   337  1
  258   241  1963  1
  259   242  1964  1
  260   242   338  1
  261   243  1961  1
  262   243   339  1
  263   244   340  1
  264   244  1962  1
  265   245  1967  1
  266   245   341  1
  267   246  1968  1
  268   246   342  1
  269   247  1965  1
  270   247   343  1
  271   248  1966  1
  272   248   344  1
  273   249   345  1
  274   249  1123  1
  275   250   346  1
  276   250  1124  1
  277   251  1121  1
  278   251   347  1
  279   252  1122  1
  280   252   348  1
  281   253  1127  1
  282   253   349  1
  283   254  1128  1
  284   254   350  1
  285   255  1125  1
  286   255   351  1
  287   256  1126  1
  288   256   352  1
  289   257   659  1
  290   257   353  1
  291   258   660  1
  292   258   354  1
  293   259   657  1
  294   259   355  1
  295   260   658  1
  296   260   356  1
  297   261   357  1
  298   261   663  1
  299   262   358  1
  300   262   664  1
  301   263   661  1
  302   263   359  1
  303   264   662  1
  304   264   360  1
  305   265  1939  1
  306   265   361  1
  307   266  1940  1
  308   266   362  1
  309   267  1937  1
  310   267   363  1
  311   268  1938  1
  312   268   364  1
  313   269   365  1
  314   269  1943  1
  315   270   366  1
  316   270  1944  1
  317   271  1941  1
  318   271   367  1
  319   272  1942  1
  320   272   368  1
  321   273  1099  1
  322   273   369  1
  323   274  1100  1
  324   274   370  1
  325   275  1097  1
  326   275   371  1
  327   276  1098  1
  328   276   372  1
  329   277   373  1
  330   277  1103  1
  331   278  1104  1
  332   278   374  1
  333   279  1101  1
  334   279   375  1
  335   280   376  1
  336   280  1102  1
  337   281   377  1
  338   281   299  1
  339   282   300  1
  340   282   378  1
  341   283   379  1
  342   283   297  1
  343   284   380  1
  344   284   298  1
  345   285   381  1
  346   285   303  1
  347   286   304  1
  348   286   382  1
  349   287   383  1
  350   287   301  1
  351   288   302  1
  352   288   384  1
  353   289   385  1
  354   289   307  1
  355   290   308  1
  356   290   386  1
  357   291   387  1
  358   291   305  1
  359   292   306  1
  360   292   388  1
  361   293   389  1
  362   293   311  1
  363   294   390  1
  364   294   312  1
  365   295   391  1
  366   295   309  1
  367   296   310  1
  368   296   392  1
  369   297   393  1
  370   298   394  1
  371   299   395  1
  372   300   396  1
  373   301   397  1
  374   302   398  1
  375   303   399  1
  376   304   400  1
  377   305   401  1
  378   306   402  1
  379   307   403  1
  380   308   404  1
  381   309   405  1
  382   310   406  1
  383   311   407  1
  384   312   408  1
  385   313   409  1
  386   313   323  1
  387   314   324  1
  388   314   410  1
  389   315   411  1
  390   315   321  1
  391   316   412  1
  392   316   322  1
  393   317   413  1
  394   317   327  1
  395   318   414  1
  396   318   328  1
  397   319   415  1
  398   319   325  1
  399   320   416  1
  400   320   326  1
  401   321   417  1
  402   322   418  1
  403   323   419  1
  404   324   420  1
  405   325   421  1
  406   326   422  1
  407   327   423  1
  408   328   424  1
  409   465   561  1
  410   466   562  1
  411   467   563  1
  412   468   564  1
  413   469   565  1
  414   470   566  1
  415   471   567  1
  416   472   568  1
  417   473   569  1
  418   474   570  1
  419   475   571  1
  420   476   572  1
  421   477   573  1
  422   478   574  1
  423   479   575  1
  424   480   576  1
  425   481   577  1
  426   482   578  1
  427   483   579  1
  428   484   580  1
  429   485   581  1
  430   486   582  1
  431   487   583  1
  432   488   584  1
  433   489   566  1
  434   490   565  1
  435   491   568  1
  436   492   567  1
  437   493   562  1
  438   494   561  1
  439   495   564  1
  440   496   563  1
  441   497   574  1
  442   498   573  1
  443   499   576  1
  444   500   575  1
  445   501   570  1
  446   502   569  1
  447   503   572  1
  448   504   571  1
  449   505   582  1
  450   506   581  1
  451   507   584  1
  452   508   583  1
  453   509   578  1
  454   510   577  1
  455   511   580  1
  456   512   579  1
  457   513   585  1
  458   514   586  1
  459   515   587  1
  460   516   588  1
  461   517   589  1
  462   518   590  1
  463   519   591  1
  464   520   592  1
  465   521   593  1
  466   522   594  1
  467   523   595  1
  468   524   596  1
  469   525   597  1
  470   526   598  1
  471   527   599  1
  472   528   600  1
  473   529   590  1
  474   530   589  1
  475   531   592  1
  476   532   591  1
  477   533   586  1
  478   534   585  1
  479   535   588  1
  480   536   587  1
  481   537   598  1
  482   538   597  1
  483   539   600  1
  484   540   599  1
  485   541   594  1
  486   542   593  1
  487   543   596  1
  488   544   595  1
  489   545   601  1
  490   546   602  1
  491   547   603  1
  492   548   604  1
  493   549   605  1
  494   550   606  1
  495   551   607  1
  496   552   608  1
  497   553   606  1
  498   554   605  1
  499   555   608  1
  500   556   607  1
  501   557   602  1
  502   558   601  1
  503   559   604  1
  504   560   603  1
  505   561   609  1
  506   562   610  1
  507   563   611  1
  508   564   612  1
  509   565   613  1
  510   566   614  1
  511   567   615  1
  512   568   616  1
  513   569   617  1
  514   570   618  1
  515   571   619  1
  516   572   620  1
  517   573   621  1
  518   574   622  1
  519   575   623  1
  520   576   624  1
  521   577   625  1
  522   578   626  1
  523   579   627  1
  524   580   628  1
  525   581   629  1
  526   582   630  1
  527   583   631  1
  528   584   632  1
  529   585   633  1
  530   586   634  1
  531   587   635  1
  532   588   636  1
  533   589   637  1
  534   590   638  1
  535   591   639  1
  536   592   640  1
  537   593   641  1
  538   594   642  1
  539   595   643  1
  540   596   644  1
  541   597   645  1
  542   598   646  1
  543   599   647  1
  544   600   648  1
  545   601   649  1
  546   602   650  1
  547   603   651  1
  548   604   652  1
  549   605   653  1
  550   606   654  1
  551   607   655  1
  552   608   656  1
  553   609   686  1
  554   609   657  1
  555   610   685  1
  556   610   658  1
  557   611   659  1
  558   611   688  1
  559   612   660  1
  560   612   687  1
  561   613   661  1
  562   613   682  1
  563   614   681  1
  564   614   662  1
  565   615   684  1
  566   615   663  1
  567   616   664  1
  568   616   683  1
  569   617   665  1
  570   617   694  1
  571   618   693  1
  572   618   666  1
  573   619   696  1
  574   619   667  1
  575   620   668  1
  576   620   695  1
  577   621   690  1
  578   621   669  1
  579   622   689  1
  580   622   670  1
  581   623   671  1
  582   623   692  1
  583   624   672  1
  584   624   691  1
  585   625   673  1
  586   625   702  1
  587   626   701  1
  588   626   674  1
  589   627   704  1
  590   627   675  1
  591   628   676  1
  592   628   703  1
  593   629   677  1
  594   629   698  1
  595   630   678  1
  596   630   697  1
  597   631   700  1
  598   631   679  1
  599   632   699  1
  600   632   680  1
  601   633   726  1
  602   633   705  1
  603   634   706  1
  604   634   725  1
  605   635   707  1
  606   635   728  1
  607   636   727  1
  608   636   708  1
  609   637   709  1
  610   637   722  1
  611   638   721  1
  612   638   710  1
  613   639   724  1
  614   639   711  1
  615   640   712  1
  616   640   723  1
  617   641   713  1
  618   641   734  1
  619   642   733  1
  620   642   714  1
  621   643   736  1
  622   643   715  1
  623   644   716  1
  624   644   735  1
  625   645   730  1
  626   645   717  1
  627   646   718  1
  628   646   729  1
  629   647   719  1
  630   647   732  1
  631   648   731  1
  632   648   720  1
  633   649   737  1
  634   649   750  1
  635   650   749  1
  636   650   738  1
  637   651   752  1
  638   651   739  1
  639   652   740  1
  640   652   751  1
  641   653   746  1
  642   653   741  1
  643   654   742  1
  644   654   745  1
  645   655   743  1
  646   655   748  1
  647   656   747  1
  648   656   744  1
  649   657   753  1
  650   658   754  1
  651   659   755  1
  652   660   756  1
  653   661   757  1
  654   662   758  1
  655   663   759  1
  656   664   760  1
  657   665  2387  1
  658   665   761  1
  659   666  2388  1
  660   666   762  1
  661   667   763  1
  662   667  2385  1
  663   668   764  1
  664   668  2386  1
  665   669  2391  1
  666   669   765  1
  667   670  2392  1
  668   670   766  1
  669   671  2389  1
  670   671   767  1
  671   672  2390  1
  672   672   768  1
  673   673  1547  1
  674   673   769  1
  675   674   770  1
  676   674  1548  1
  677   675   771  1
  678   675  1545  1
  679   676  1546  1
  680   676   772  1
  681   677  1551  1
  682   677   773  1
  683   678  1552  1
  684   678   774  1
  685   679  1549  1
  686   679   775  1
  687   680  1550  1
  688   680   776  1
  689   681   777  1
  690   682   778  1
  691   683   779  1
  692   684   780  1
  693   685   781  1
  694   686   782  1
  695   687   783  1
  696   688   784  1
  697   689  2363  1
  698   689   785  1
  699   690  2364  1
  700   690   786  1
  701   691  2361  1
  702   691   787  1
  703   692  2362  1
  704   692   788  1
  705   693  2367  1
  706   693   789  1
  707   694   790  1
  708   694  2368  1
  709   695   791  1
  710   695  2365  1
  711   696  2366  1
  712   696   792  1
  713   697  1523  1
  714   697   793  1
  715   698  1524  1
  716   698   794  1
  717   699  1521  1
  718   699   795  1
  719   700  1522  1
  720   700   796  1
  721   701  1527  1
  722   701   797  1
  723   702  1528  1
  724   702   798  1
  725   703   799  1
  726   703  1525  1
  727   704   800  1
  728   704  1526  1
  729   705   801  1
  730   705   723  1
  731   706   724  1
  732   706   802  1
  733   707   803  1
  734   707   721  1
  735   708   804  1
  736   708   722  1
  737   709   805  1
  738   709   727  1
  739   710   728  1
  740   710   806  1
  741   711   807  1
  742   711   725  1
  743   712   726  1
  744   712   808  1
  745   713   809  1
  746   713   731  1
  747   714   810  1
  748   714   732  1
  749   715   811  1
  750   715   729  1
  751   716   730  1
  752   716   812  1
  753   717   813  1
  754   717   735  1
  755   718   814  1
  756   718   736  1
  757   719   815  1
  758   719   733  1
  759   720   734  1
  760   720   816  1
  761   721   817  1
  762   722   818  1
  763   723   819  1
  764   724   820  1
  765   725   821  1
  766   726   822  1
  767   727   823  1
  768   728   824  1
  769   729   825  1
  770   730   826  1
  771   731   827  1
  772   732   828  1
  773   733   829  1
  774   734   830  1
  775   735   831  1
  776   736   832  1
  777   737   833  1
  778   737   747  1
  779   738   748  1
  780   738   834  1
  781   739   835  1
  782   739   745  1
  783   740   746  1
  784   740   836  1
  785   741   837  1
  786   741   751  1
  787   742   838  1
  788   742   752  1
  789   743   839  1
  790   743   749  1
  791   744   840  1
  792   744   750  1
  793   745   841  1
  794   746   842  1
  795   747   843  1
  796   748   844  1
  797   749   845  1
  798   750   846  1
  799   751   847  1
  800   752   848  1
  801   889   985  1
  802   890   986  1
  803   891   987  1
  804   892   988  1
  805   893   989  1
  806   894   990  1
  807   895   991  1
  808   896   992  1
  809   897   993  1
  810   898   994  1
  811   899   995  1
  812   900   996  1
  813   901   997  1
  814   902   998  1
  815   903   999  1
  816   904  1000  1
  817   905  1001  1
  818   906  1002  1
  819   907  1003  1
  820   908  1004  1
  821   909  1005  1
  822   910  1006  1
  823   911  1007  1
  824   912  1008  1
  825   913   990  1
  826   914   989  1
  827   915   992  1
  828   916   991  1
  829   917   986  1
  830   918   985  1
  831   919   988  1
  832   920   987  1
  833   921   998  1
  834   922   997  1
  835   923  1000  1
  836   924   999  1
  837   925   994  1
  838   926   993  1
  839   927   996  1
  840   928   995  1
  841   929  1006  1
  842   930  1005  1
  843   931  1008  1
  844   932  1007  1
  845   933  1002  1
  846   934  1001  1
  847   935  1004  1
  848   936  1003  1
  849   937  1009  1
  850   938  1010  1
  851   939  1011  1
  852   940  1012  1
  853   941  1013  1
  854   942  1014  1
  855   943  1015  1
  856   944  1016  1
  857   945  1017  1
  858   946  1018  1
  859   947  1019  1
  860   948  1020  1
  861   949  1021  1
  862   950  1022  1
  863   951  1023  1
  864   952  1024  1
  865   953  1014  1
  866   954  1013  1
  867   955  1016  1
  868   956  1015  1
  869   957  1010  1
  870   958  1009  1
  871   959  1012  1
  872   960  1011  1
  873   961  1022  1
  874   962  1021  1
  875   963  1024  1
  876   964  1023  1
  877   965  1018  1
  878   966  1017  1
  879   967  1020  1
  880   968  1019  1
  881   969  1025  1
  882   970  1026  1
  883   971  1027  1
  884   972  1028  1
  885   973  1029  1
  886   974  1030  1
  887   975  1031  1
  888   976  1032  1
  889   977  1030  1
  890   978  1029  1
  891   979  1032  1
  892   980  1031  1
  893   981  1026  1
  894   982  1025  1
  895   983  1028  1
  896   984  1027  1
  897   985  1033  1
  898   986  1034  1
  899   987  1035  1
  900   988  1036  1
  901   989  1037  1
  902   990  1038  1
  903   991  1039  1
  904   992  1040  1
  905   993  1041  1
  906   994  1042  1
  907   995  1043  1
  908   996  1044  1
  909   997  1045  1
  910   998  1046  1
  911   999  1047  1
  912  1000  1048  1
  913  1001  1049  1
  914  1002  1050  1
  915  1003  1051  1
  916  1004  1052  1
  917  1005  1053  1
  918  1006  1054  1
  919  1007  1055  1
  920  1008  1056  1
  921  1009  1057  1
  922  1010  1058  1
  923  1011  1059  1
  924  1012  1060  1
  925  1013  1061  1
  926  1014  1062  1
  927  1015  1063  1
  928  1016  1064  1
  929  1017  1065  1
  930  1018  1066  1
  931  1019  1067  1
  932  1020  1068  1
  933  1021  1069  1
  934  1022  1070  1
  935  1023  1071  1
  936  1024  1072  1
  937  1025  1073  1
  938  1026  1074  1
  939  1027  1075  1
  940  1028  1076  1
  941  1029  1077  1
  942  1030  1078  1
  943  1031  1079  1
  944  1032  1080  1
  945  1033  1081  1
  946  1033  1110  1
  947  1034  1109  1
  948  1034  1082  1
  949  1035  1112  1
  950  1035  1083  1
  951  1036  1084  1
  952  1036  1111  1
  953  1037  1106  1
  954  1037  1085  1
  955  1038  1105  1
  956  1038  1086  1
  957  1039  1087  1
  958  1039  1108  1
  959  1040  1088  1
  960  1040  1107  1
  961  1041  1118  1
  962  1041  1089  1
  963  1042  1117  1
  964  1042  1090  1
  965  1043  1091  1
  966  1043  1120  1
  967  1044  1092  1
  968  1044  1119  1
  969  1045  1114  1
  970  1045  1093  1
  971  1046  1113  1
  972  1046  1094  1
  973  1047  1095  1
  974  1047  1116  1
  975  1048  1096  1
  976  1048  1115  1
  977  1049  1097  1
  978  1049  1126  1
  979  1050  1098  1
  980  1050  1125  1
  981  1051  1128  1
  982  1051  1099  1
  983  1052  1127  1
  984  1052  1100  1
  985  1053  1101  1
  986  1053  1122  1
  987  1054  1121  1
  988  1054  1102  1
  989  1055  1124  1
  990  1055  1103  1
  991  1056  1104  1
  992  1056  1123  1
  993  1057  1129  1
  994  1057  1150  1
  995  1058  1149  1
  996  1058  1130  1
  997  1059  1152  1
  998  1059  1131  1
  999  1060  1132  1
 1000  1060  1151  1
 1001  1061  1146  1
 1002  1061  1133  1
 1003  1062  1134  1
 1004  1062  1145  1
 1005  1063  1135  1
 1006  1063  1148  1
 1007  1064  1147  1
 1008  1064  1136  1
 1009  1065  1158  1
 1010  1065  1137  1
 1011  1066  1138  1
 1012  1066  1157  1
 1013  1067  1139  1
 1014  1067  1160  1
 1015  1068  1159  1
 1016  1068  1140  1
 1017  1069  1141  1
 1018  1069  1154  1
 1019  1070  1153  1
 1020  1070  1142  1
 1021  1071  1156  1
 1022  1071  1143  1
 1023  1072  1144  1
 1024  1072  1155  1
 1025  1073  1174  1
 1026  1073  1161  1
 1027  1074  1173  1
 1028  1074  1162  1
 1029  1075  1163  1
 1030  1075  1176  1
 1031  1076  1164  1
 1032  1076  1175  1
 1033  1077  1170  1
 1034  1077  1165  1
 1035  1078  1169  1
 1036  1078  1166  1
 1037  1079  1167  1
 1038  1079  1172  1
 1039  1080  1168  1
 1040  1080  1171  1
 1041  1081  1177  1
 1042  1081  1531  1
 1043  1082  1532  1
 1044  1082  1178  1
 1045  1083  1179  1
 1046  1083  1529  1
 1047  1084  1180  1
 1048  1084  1530  1
 1049  1085  1535  1
 1050  1085  1181  1
 1051  1086  1536  1
 1052  1086  1182  1
 1053  1087  1533  1
 1054  1087  1183  1
 1055  1088  1534  1
 1056  1088  1184  1
 1057  1089  1185  1
 1058  1089  2811  1
 1059  1090  1186  1
 1060  1090  2812  1
 1061  1091  2809  1
 1062  1091  1187  1
 1063  1092  2810  1
 1064  1092  1188  1
 1065  1093  2815  1
 1066  1093  1189  1
 1067  1094  2816  1
 1068  1094  1190  1
 1069  1095  2813  1
 1070  1095  1191  1
 1071  1096  2814  1
 1072  1096  1192  1
 1073  1097  1193  1
 1074  1098  1194  1
 1075  1099  1195  1
 1076  1100  1196  1
 1077  1101  1197  1
 1078  1102  1198  1
 1079  1103  1199  1
 1080  1104  1200  1
 1081  1105  1507  1
 1082  1105  1201  1
 1083  1106  1508  1
 1084  1106  1202  1
 1085  1107  1505  1
 1086  1107  1203  1
 1087  1108  1506  1
 1088  1108  1204  1
 1089  1109  1205  1
 1090  1109  1511  1
 1091  1110  1206  1
 1092  1110  1512  1
 1093  1111  1207  1
 1094  1111  1509  1
 1095  1112  1510  1
 1096  1112  1208  1
 1097  1113  2787  1
 1098  1113  1209  1
 1099  1114  2788  1
 1100  1114  1210  1
 1101  1115  2785  1
 1102  1115  1211  1
 1103  1116  2786  1
 1104  1116  1212  1
 1105  1117  1213  1
 1106  1117  2791  1
 1107  1118  2792  1
 1108  1118  1214  1
 1109  1119  2789  1
 1110  1119  1215  1
 1111  1120  1216  1
 1112  1120  2790  1
 1113  1121  1217  1
 1114  1122  1218  1
 1115  1123  1219  1
 1116  1124  1220  1
 1117  1125  1221  1
 1118  1126  1222  1
 1119  1127  1223  1
 1120  1128  1224  1
 1121  1129  1225  1
 1122  1129  1147  1
 1123  1130  1148  1
 1124  1130  1226  1
 1125  1131  1227  1
 1126  1131  1145  1
 1127  1132  1228  1
 1128  1132  1146  1
 1129  1133  1229  1
 1130  1133  1151  1
 1131  1134  1152  1
 1132  1134  1230  1
 1133  1135  1231  1
 1134  1135  1149  1
 1135  1136  1232  1
 1136  1136  1150  1
 1137  1137  1233  1
 1138  1137  1155  1
 1139  1138  1156  1
 1140  1138  1234  1
 1141  1139  1235  1
 1142  1139  1153  1
 1143  1140  1154  1
 1144  1140  1236  1
 1145  1141  1237  1
 1146  1141  1159  1
 1147  1142  1238  1
 1148  1142  1160  1
 1149  1143  1239  1
 1150  1143  1157  1
 1151  1144  1158  1
 1152  1144  1240  1
 1153  1145  1241  1
 1154  1146  1242  1
 1155  1147  1243  1
 1156  1148  1244  1
 1157  1149  1245  1
 1158  1150  1246  1
 1159  1151  1247  1
 1160  1152  1248  1
 1161  1153  1249  1
 1162  1154  1250  1
 1163  1155  1251  1
 1164  1156  1252  1
 1165  1157  1253  1
 1166  1158  1254  1
 1167  1159  1255  1
 1168  1160  1256  1
 1169  1161  1257  1
 1170  1161  1171  1
 1171  1162  1172  1
 1172  1162  1258  1
 1173  1163  1259  1
 1174  1163  1169  1
 1175  1164  1170  1
 1176  1164  1260  1
 1177  1165  1261  1
 1178  1165  1175  1
 1179  1166  1262  1
 1180  1166  1176  1
 1181  1167  1263  1
 1182  1167  1173  1
 1183  1168  1264  1
 1184  1168  1174  1
 1185  1169  1265  1
 1186  1170  1266  1
 1187  1171  1267  1
 1188  1172  1268  1
 1189  1173  1269  1
 1190  1174  1270  1
 1191  1175  1271  1
 1192  1176  1272  1
 1193  1313  1409  1
 1194  1314  1410  1
 1195  1315  1411  1
 1196  1316  1412  1
 1197  1317  1413  1
 1198  1318  1414  1
 1199  1319  1415  1
 1200  1320  1416  1
 1201  1321  1417  1
 1202  1322  1418  1
 1203  1323  1419  1
 1204  1324  1420  1
 1205  1325  1421  1
 1206  1326  1422  1
 1207  1327  1423  1
 1208  1328  1424  1
 1209  1329  1425  1
 1210  1330  1426  1
 1211  1331  1427  1
 1212  1332  1428  1
 1213  1333  1429  1
 1214  1334  1430  1
 1215  1335  1431  1
 1216  1336  1432  1
 1217  1337  1414  1
 1218  1338  1413  1
 1219  1339  1416  1
 1220  1340  1415  1
 1221  1341  1410  1
 1222  1342  1409  1
 1223  1343  1412  1
 1224  1344  1411  1
 1225  1345  1422  1
 1226  1346  1421  1
 1227  1347  1424  1
 1228  1348  1423  1
 1229  1349  1418  1
 1230  1350  1417  1
 1231  1351  1420  1
 1232  1352  1419  1
 1233  1353  1430  1
 1234  1354  1429  1
 1235  1355  1432  1
 1236  1356  1431  1
 1237  1357  1426  1
 1238  1358  1425  1
 1239  1359  1428  1
 1240  1360  1427  1
 1241  1361  1433  1
 1242  1362  1434  1
 1243  1363  1435  1
 1244  1364  1436  1
 1245  1365  1437  1
 1246  1366  1438  1
 1247  1367  1439  1
 1248  1368  1440  1
 1249  1369  1441  1
 1250  1370  1442  1
 1251  1371  1443  1
 1252  1372  1444  1
 1253  1373  1445  1
 1254  1374  1446  1
 1255  1375  1447  1
 1256  1376  1448  1
 1257  1377  1438  1
 1258  1378  1437  1
 1259  1379  1440  1
 1260  1380  1439  1
 1261  1381  1434  1
 1262  1382  1433  1
 1263  1383  1436  1
 1264  1384  1435  1
 1265  1385  1446  1
 1266  1386  1445  1
 1267  1387  1448  1
 1268  1388  1447  1
 1269  1389  1442  1
 1270  1390  1441  1
 1271  1391  1444  1
 1272  1392  1443  1
 1273  1393  1449  1
 1274  1394  1450  1
 1275  1395  1451  1
 1276  1396  1452  1
 1277  1397  1453  1
 1278  1398  1454  1
 1279  1399  1455  1
 1280  1400  1456  1
 1281  1401  1454  1
 1282  1402  1453  1
 1283  1403  1456  1
 1284  1404  1455  1
 1285  1405  1450  1
 1286  1406  1449  1
 1287  1407  1452  1
 1288  1408  1451  1
 1289  1409  1457  1
 1290  1410  1458  1
 1291  1411  1459  1
 1292  1412  1460  1
 1293  1413  1461  1
 1294  1414  1462  1
 1295  1415  1463  1
 1296  1416  1464  1
 1297  1417  1465  1
 1298  1418  1466  1
 1299  1419  1467  1
 1300  1420  1468  1
 1301  1421  1469  1
 1302  1422  1470  1
 1303  1423  1471  1
 1304  1424  1472  1
 1305  1425  1473  1
 1306  1426  1474  1
 1307  1427  1475  1
 1308  1428  1476  1
 1309  1429  1477  1
 1310  1430  1478  1
 1311  1431  1479  1
 1312  1432  1480  1
 1313  1433  1481  1
 1314  1434  1482  1
 1315  1435  1483  1
 1316  1436  1484  1
 1317  1437  1485  1
 1318  1438  1486  1
 1319  1439  1487  1
 1320  1440  1488  1
 1321  1441  1489  1
 1322  1442  1490  1
 1323  1443  1491  1
 1324  1444  1492  1
 1325  1445  1493  1
 1326  1446  1494  1
 1327  1447  1495  1
 1328  1448  1496  1
 1329  1449  1497  1
 1330  1450  1498  1
 1331  1451  1499  1
 1332  1452  1500  1
 1333  1453  1501  1
 1334  1454  1502  1
 1335  1455  1503  1
 1336  1456  1504  1
 1337  1457  1534  1
 1338  1457  1505  1
 1339  1458  1533  1
 1340  1458  1506  1
 1341  1459  1507  1
 1342  1459  1536  1
 1343  1460  1508  1
 1344  1460  1535  1
 1345  1461  1530  1
 1346  1461  1509  1
 1347  1462  1510  1
 1348  1462  1529  1
 1349  1463  1511  1
 1350  1463  1532  1
 1351  1464  1531  1
 1352  1464  1512  1
 1353  1465  1542  1
 1354  1465  1513  1
 1355  1466  1541  1
 1356  1466  1514  1
 1357  1467  1515  1
 1358  1467  1544  1
 1359  1468  1516  1
 1360  1468  1543  1
 1361  1469  1538  1
 1362  1469  1517  1
 1363  1470  1537  1
 1364  1470  1518  1
 1365  1471  1519  1
 1366  1471  1540  1
 1367  1472  1520  1
 1368  1472  1539  1
 1369  1473  1521  1
 1370  1473  1550  1
 1371  1474  1522  1
 1372  1474  1549  1
 1373  1475  1552  1
 1374  1475  1523  1
 1375  1476  1551  1
 1376  1476  1524  1
 1377  1477  1546  1
 1378  1477  1525  1
 1379  1478  1526  1
 1380  1478  1545  1
 1381  1479  1527  1
 1382  1479  1548  1
 1383  1480  1547  1
 1384  1480  1528  1
 1385  1481  1553  1
 1386  1481  1574  1
 1387  1482  1573  1
 1388  1482  1554  1
 1389  1483  1576  1
 1390  1483  1555  1
 1391  1484  1556  1
 1392  1484  1575  1
 1393  1485  1570  1
 1394  1485  1557  1
 1395  1486  1558  1
 1396  1486  1569  1
 1397  1487  1559  1
 1398  1487  1572  1
 1399  1488  1571  1
 1400  1488  1560  1
 1401  1489  1561  1
 1402  1489  1582  1
 1403  1490  1581  1
 1404  1490  1562  1
 1405  1491  1584  1
 1406  1491  1563  1
 1407  1492  1564  1
 1408  1492  1583  1
 1409  1493  1578  1
 1410  1493  1565  1
 1411  1494  1566  1
 1412  1494  1577  1
 1413  1495  1567  1
 1414  1495  1580  1
 1415  1496  1579  1
 1416  1496  1568  1
 1417  1497  1598  1
 1418  1497  1585  1
 1419  1498  1597  1
 1420  1498  1586  1
 1421  1499  1587  1
 1422  1499  1600  1
 1423  1500  1588  1
 1424  1500  1599  1
 1425  1501  1594  1
 1426  1501  1589  1
 1427  1502  1593  1
 1428  1502  1590  1
 1429  1503  1591  1
 1430  1503  1596  1
 1431  1504  1592  1
 1432  1504  1595  1
 1433  1505  1601  1
 1434  1506  1602  1
 1435  1507  1603  1
 1436  1508  1604  1
 1437  1509  1605  1
 1438  1510  1606  1
 1439  1511  1607  1
 1440  1512  1608  1
 1441  1513  3235  1
 1442  1513  1609  1
 1443  1514  1610  1
 1444  1514  3236  1
 1445  1515  1611  1
 1446  1515  3233  1
 1447  1516  3234  1
 1448  1516  1612  1
 1449  1517  3239  1
 1450  1517  1613  1
 1451  1518  3240  1
 1452  1518  1614  1
 1453  1519  3237  1
 1454  1519  1615  1
 1455  1520  3238  1
 1456  1520  1616  1
 1457  1521  1617  1
 1458  1522  1618  1
 1459  1523  1619  1
 1460  1524  1620  1
 1461  1525  1621  1
 1462  1526  1622  1
 1463  1527  1623  1
 1464  1528  1624  1
 1465  1529  1625  1
 1466  1530  1626  1
 1467  1531  1627  1
 1468  1532  1628  1
 1469  1533  1629  1
 1470  1534  1630  1
 1471  1535  1631  1
 1472  1536  1632  1
 1473  1537  3211  1
 1474  1537  1633  1
 1475  1538  3212  1
 1476  1538  1634  1
 1477  1539  3209  1
 1478  1539  1635  1
 1479  1540  3210  1
 1480  1540  1636  1
 1481  1541  3215  1
 1482  1541  1637  1
 1483  1542  3216  1
 1484  1542  1638  1
 1485  1543  1639  1
 1486  1543  3213  1
 1487  1544  1640  1
 1488  1544  3214  1
 1489  1545  1641  1
 1490  1546  1642  1
 1491  1547  1643  1
 1492  1548  1644  1
 1493  1549  1645  1
 1494  1550  1646  1
 1495  1551  1647  1
 1496  1552  1648  1
 1497  1553  1649  1
 1498  1553  1571  1
 1499  1554  1572  1
 1500  1554  1650  1
 1501  1555  1651  1
 1502  1555  1569  1
 1503  1556  1652  1
 1504  1556  1570  1
 1505  1557  1653  1
 1506  1557  1575  1
 1507  1558  1576  1
 1508  1558  1654  1
 1509  1559  1655  1
 1510  1559  1573  1
 1511  1560  1656  1
 1512  1560  1574  1
 1513  1561  1657  1
 1514  1561  1579  1
 1515  1562  1658  1
 1516  1562  1580  1
 1517  1563  1659  1
 1518  1563  1577  1
 1519  1564  1578  1
 1520  1564  1660  1
 1521  1565  1661  1
 1522  1565  1583  1
 1523  1566  1662  1
 1524  1566  1584  1
 1525  1567  1663  1
 1526  1567  1581  1
 1527  1568  1582  1
 1528  1568  1664  1
 1529  1569  1665  1
 1530  1570  1666  1
 1531  1571  1667  1
 1532  1572  1668  1
 1533  1573  1669  1
 1534  1574  1670  1
 1535  1575  1671  1
 1536  1576  1672  1
 1537  1577  1673  1
 1538  1578  1674  1
 1539  1579  1675  1
 1540  1580  1676  1
 1541  1581  1677  1
 1542  1582  1678  1
 1543  1583  1679  1
 1544  1584  1680  1
 1545  1585  1681  1
 1546  1585  1595  1
 1547  1586  1682  1
 1548  1586  1596  1
 1549  1587  1683  1
 1550  1587  1593  1
 1551  1588  1594  1
 1552  1588  1684  1
 1553  1589  1685  1
 1554  1589  1599  1
 1555  1590  1686  1
 1556  1590  1600  1
 1557  1591  1687  1
 1558  1591  1597  1
 1559  1592  1688  1
 1560  1592  1598  1
 1561  1593  1689  1
 1562  1594  1690  1
 1563  1595  1691  1
 1564  1596  1692  1
 1565  1597  1693  1
 1566  1598  1694  1
 1567  1599  1695  1
 1568  1600  1696  1
 1569  1737  1833  1
 1570  1738  1834  1
 1571  1739  1835  1
 1572  1740  1836  1
 1573  1741  1837  1
 1574  1742  1838  1
 1575  1743  1839  1
 1576  1744  1840  1
 1577  1745  1841  1
 1578  1746  1842  1
 1579  1747  1843  1
 1580  1748  1844  1
 1581  1749  1845  1
 1582  1750  1846  1
 1583  1751  1847  1
 1584  1752  1848  1
 1585  1753  1849  1
 1586  1754  1850  1
 1587  1755  1851  1
 1588  1756  1852  1
 1589  1757  1853  1
 1590  1758  1854  1
 1591  1759  1855  1
 1592  1760  1856  1
 1593  1761  1838  1
 1594  1762  1837  1
 1595  1763  1840  1
 1596  1764  1839  1
 1597  1765  1834  1
 1598  1766  1833  1
 1599  1767  1836  1
 1600  1768  1835  1
 1601  1769  1846  1
 1602  1770  1845  1
 1603  1771  1848  1
 1604  1772  1847  1
 1605  1773  1842  1
 1606  1774  1841  1
 1607  1775  1844  1
 1608  1776  1843  1
 1609  1777  1854  1
 1610  1778  1853  1
 1611  1779  1856  1
 1612  1780  1855  1
 1613  1781  1850  1
 1614  1782  1849  1
 1615  1783  1852  1
 1616  1784  1851  1
 1617  1785  1857  1
 1618  1786  1858  1
 1619  1787  1859  1
 1620  1788  1860  1
 1621  1789  1861  1
 1622  1790  1862  1
 1623  1791  1863  1
 1624  1792  1864  1
 1625  1793  1865  1
 1626  1794  1866  1
 1627  1795  1867  1
 1628  1796  1868  1
 1629  1797  1869  1
 1630  1798  1870  1
 1631  1799  1871  1
 1632  1800  1872  1
 1633  1801  1862  1
 1634  1802  1861  1
 1635  1803  1864  1
 1636  1804  1863  1
 1637  1805  1858  1
 1638  1806  1857  1
 1639  1807  1860  1
 1640  1808  1859  1
 1641  1809  1870  1
 1642  1810  1869  1
 1643  1811  1872  1
 1644  1812  1871  1
 1645  1813  1866  1
 1646  1814  1865  1
 1647  1815  1868  1
 1648  1816  1867  1
 1649  1817  1873  1
 1650  1818  1874  1
 1651  1819  1875  1
 1652  1820  1876  1
 1653  1821  1877  1
 1654  1822  1878  1
 1655  1823  1879  1
 1656  1824  1880  1
 1657  1825  1878  1
 1658  1826  1877  1
 1659  1827  1880  1
 1660  1828  1879  1
 1661  1829  1874  1
 1662  1830  1873  1
 1663  1831  1876  1
 1664  1832  1875  1
 1665  1833  1881  1
 1666  1834  1882  1
 1667  1835  1883  1
 1668  1836  1884  1
 1669  1837  1885  1
 1670  1838  1886  1
 1671  1839  1887  1
 1672  1840  1888  1
 1673  1841  1889  1
 1674  1842  1890  1
 1675  1843  1891  1
 1676  1844  1892  1
 1677  1845  1893  1
 1678  1846  1894  1
 1679  1847  1895  1
 1680  1848  1896  1
 1681  1849  1897  1
 1682  1850  1898  1
 1683  1851  1899  1
 1684  1852  1900  1
 1685  1853  1901  1
 1686  1854  1902  1
 1687  1855  1903  1
 1688  1856  1904  1
 1689  1857  1905  1
 1690  1858  1906  1
 1691  1859  1907  1
 1692  1860  1908  1
 1693  1861  1909  1
 1694  1862  1910  1
 1695  1863  1911  1
 1696  1864  1912  1
 1697  1865  1913  1
 1698  1866  1914  1
 1699  1867  1915  1
 1700  1868  1916  1
 1701  1869  1917  1
 1702  1870  1918  1
 1703  1871  1919  1
 1704  1872  1920  1
 1705  1873  1921  1
 1706  1874  1922  1
 1707  1875  1923  1
 1708  1876  1924  1
 1709  1877  1925  1
 1710  1878  1926  1
 1711  1879  1927  1
 1712  1880  1928  1
 1713  1881  1958  1
 1714  1881  1929  1
 1715  1882  1957  1
 1716  1882  1930  1
 1717  1883  1931  1
 1718  1883  1960  1
 1719  1884  1932  1
 1720  1884  1959  1
 1721  1885  1954  1
 1722  1885  1933  1
 1723  1886  1953  1
 1724  1886  1934  1
 1725  1887  1935  1
 1726  1887  1956  1
 1727  1888  1936  1
 1728  1888  1955  1
 1729  1889  1966  1
 1730  1889  1937  1
 1731  1890  1965  1
 1732  1890  1938  1
 1733  1891  1939  1
 1734  1891  1968  1
 1735  1892  1940  1
 1736  1892  1967  1
 1737  1893  1941  1
 1738  1893  1962  1
 1739  1894  1961  1
 1740  1894  1942  1
 1741  1895  1964  1
 1742  1895  1943  1
 1743  1896  1944  1
 1744  1896  1963  1
 1745  1897  1945  1
 1746  1897  1974  1
 1747  1898  1946  1
 1748  1898  1973  1
 1749  1899  1976  1
 1750  1899  1947  1
 1751  1900  1975  1
 1752  1900  1948  1
 1753  1901  1949  1
 1754  1901  1970  1
 1755  1902  1950  1
 1756  1902  1969  1
 1757  1903  1972  1
 1758  1903  1951  1
 1759  1904  1971  1
 1760  1904  1952  1
 1761  1905  1998  1
 1762  1905  1977  1
 1763  1906  1997  1
 1764  1906  1978  1
 1765  1907  1979  1
 1766  1907  2000  1
 1767  1908  1980  1
 1768  1908  1999  1
 1769  1909  1994  1
 1770  1909  1981  1
 1771  1910  1993  1
 1772  1910  1982  1
 1773  1911  1983  1
 1774  1911  1996  1
 1775  1912  1984  1
 1776  1912  1995  1
 1777  1913  1985  1
 1778  1913  2006  1
 1779  1914  1986  1
 1780  1914  2005  1
 1781  1915  2008  1
 1782  1915  1987  1
 1783  1916  2007  1
 1784  1916  1988  1
 1785  1917  1989  1
 1786  1917  2002  1
 1787  1918  1990  1
 1788  1918  2001  1
 1789  1919  2004  1
 1790  1919  1991  1
 1791  1920  2003  1
 1792  1920  1992  1
 1793  1921  2022  1
 1794  1921  2009  1
 1795  1922  2010  1
 1796  1922  2021  1
 1797  1923  2011  1
 1798  1923  2024  1
 1799  1924  2023  1
 1800  1924  2012  1
 1801  1925  2013  1
 1802  1925  2018  1
 1803  1926  2017  1
 1804  1926  2014  1
 1805  1927  2020  1
 1806  1927  2015  1
 1807  1928  2016  1
 1808  1928  2019  1
 1809  1929  2025  1
 1810  1929  2379  1
 1811  1930  2026  1
 1812  1930  2380  1
 1813  1931  2377  1
 1814  1931  2027  1
 1815  1932  2028  1
 1816  1932  2378  1
 1817  1933  2383  1
 1818  1933  2029  1
 1819  1934  2384  1
 1820  1934  2030  1
 1821  1935  2381  1
 1822  1935  2031  1
 1823  1936  2382  1
 1824  1936  2032  1
 1825  1937  2033  1
 1826  1938  2034  1
 1827  1939  2035  1
 1828  1940  2036  1
 1829  1941  2037  1
 1830  1942  2038  1
 1831  1943  2039  1
 1832  1944  2040  1
 1833  1945  2041  1
 1834  1945  2819  1
 1835  1946  2042  1
 1836  1946  2820  1
 1837  1947  2817  1
 1838  1947  2043  1
 1839  1948  2044  1
 1840  1948  2818  1
 1841  1949  2823  1
 1842  1949  2045  1
 1843  1950  2824  1
 1844  1950  2046  1
 1845  1951  2821  1
 1846  1951  2047  1
 1847  1952  2822  1
 1848  1952  2048  1
 1849  1953  2355  1
 1850  1953  2049  1
 1851  1954  2356  1
 1852  1954  2050  1
 1853  1955  2353  1
 1854  1955  2051  1
 1855  1956  2354  1
 1856  1956  2052  1
 1857  1957  2053  1
 1858  1957  2359  1
 1859  1958  2054  1
 1860  1958  2360  1
 1861  1959  2357  1
 1862  1959  2055  1
 1863  1960  2056  1
 1864  1960  2358  1
 1865  1961  2057  1
 1866  1962  2058  1
 1867  1963  2059  1
 1868  1964  2060  1
 1869  1965  2061  1
 1870  1966  2062  1
 1871  1967  2063  1
 1872  1968  2064  1
 1873  1969  2795  1
 1874  1969  2065  1
 1875  1970  2796  1
 1876  1970  2066  1
 1877  1971  2793  1
 1878  1971  2067  1
 1879  1972  2794  1
 1880  1972  2068  1
 1881  1973  2069  1
 1882  1973  2799  1
 1883  1974  2070  1
 1884  1974  2800  1
 1885  1975  2797  1
 1886  1975  2071  1
 1887  1976  2072  1
 1888  1976  2798  1
 1889  1977  2073  1
 1890  1977  1995  1
 1891  1978  1996  1
 1892  1978  2074  1
 1893  1979  2075  1
 1894  1979  1993  1
 1895  1980  2076  1
 1896  1980  1994  1
 1897  1981  2077  1
 1898  1981  1999  1
 1899  1982  2078  1
 1900  1982  2000  1
 1901  1983  2079  1
 1902  1983  1997  1
 1903  1984  2080  1
 1904  1984  1998  1
 1905  1985  2081  1
 1906  1985  2003  1
 1907  1986  2082  1
 1908  1986  2004  1
 1909  1987  2083  1
 1910  1987  2001  1
 1911  1988  2084  1
 1912  1988  2002  1
 1913  1989  2085  1
 1914  1989  2007  1
 1915  1990  2086  1
 1916  1990  2008  1
 1917  1991  2087  1
 1918  1991  2005  1
 1919  1992  2088  1
 1920  1992  2006  1
 1921  1993  2089  1
 1922  1994  2090  1
 1923  1995  2091  1
 1924  1996  2092  1
 1925  1997  2093  1
 1926  1998  2094  1
 1927  1999  2095  1
 1928  2000  2096  1
 1929  2001  2097  1
 1930  2002  2098  1
 1931  2003  2099  1
 1932  2004  2100  1
 1933  2005  2101  1
 1934  2006  2102  1
 1935  2007  2103  1
 1936  2008  2104  1
 1937  2009  2105  1
 1938  2009  2019  1
 1939  2010  2020  1
 1940  2010  2106  1
 1941  2011  2107  1
 1942  2011  2017  1
 1943  2012  2108  1
 1944  2012  2018  1
 1945  2013  2109  1
 1946  2013  2023  1
 1947  2014  2110  1
 1948  2014  2024  1
 1949  2015  2111  1
 1950  2015  2021  1
 1951  2016  2112  1
 1952  2016  2022  1
 1953  2017  2113  1
 1954  2018  2114  1
 1955  2019  2115  1
 1956  2020  2116  1
 1957  2021  2117  1
 1958  2022  2118  1
 1959  2023  2119  1
 1960  2024  2120  1
 1961  2161  2257  1
 1962  2162  2258  1
 1963  2163  2259  1
 1964  2164  2260  1
 1965  2165  2261  1
 1966  2166  2262  1
 1967  2167  2263  1
 1968  2168  2264  1
 1969  2169  2265  1
 1970  2170  2266  1
 1971  2171  2267  1
 1972  2172  2268  1
 1973  2173  2269  1
 1974  2174  2270  1
 1975  2175  2271  1
 1976  2176  2272  1
 1977  2177  2273  1
 1978  2178  2274  1
 1979  2179  2275  1
 1980  2180  2276  1
 1981  2181  2277  1
 1982  2182  2278  1
 1983  2183  2279  1
 1984  2184  2280  1
 1985  2185  2262  1
 1986  2186  2261  1
 1987  2187  2264  1
 1988  2188  2263  1
 1989  2189  2258  1
 1990  2190  2257  1
 1991  2191  2260  1
 1992  2192  2259  1
 1993  2193  2270  1
 1994  2194  2269  1
 1995  2195  2272  1
 1996  2196  2271  1
 1997  2197  2266  1
 1998  2198  2265  1
 1999  2199  2268  1
 2000  2200  2267  1
 2001  2201  2278  1
 2002  2202  2277  1
 2003  2203  2280  1
 2004  2204  2279  1
 2005  2205  2274  1
 2006  2206  2273  1
 2007  2207  2276  1
 2008  2208  2275  1
 2009  2209  2281  1
 2010  2210  2282  1
 2011  2211  2283  1
 2012  2212  2284  1
 2013  2213  2285  1
 2014  2214  2286  1
 2015  2215  2287  1
 2016  2216  2288  1
 2017  2217  2289  1
 2018  2218  2290  1
 2019  2219  2291  1
 2020  2220  2292  1
 2021  2221  2293  1
 2022  2222  2294  1
 2023  2223  2295  1
 2024  2224  2296  1
 2025  2225  2286  1
 2026  2226  2285  1
 2027  2227  2288  1
 2028  2228  2287  1
 2029  2229  2282  1
 2030  2230  2281  1
 2031  2231  2284  1
 2032  2232  2283  1
 2033  2233  2294  1
 2034  2234  2293  1
 2035  2235  2296  1
 2036  2236  2295  1
 2037  2237  2290  1
 2038  2238  2289  1
 2039  2239  2292  1
 2040  2240  2291  1
 2041  2241  2297  1
 2042  2242  2298  1
 2043  2243  2299  1
 2044  2244  2300  1
 2045  2245  2301  1
 2046  2246  2302  1
 2047  2247  2303  1
 2048  2248  2304  1
 2049  2249  2302  1
 2050  2250  2301  1
 2051  2251  2304  1
 2052  2252  2303  1
 2053  2253  2298  1
 2054  2254  2297  1
 2055  2255  2300  1
 2056  2256  2299  1
 2057  2257  2305  1
 2058  2258  2306  1
 2059  2259  2307  1
 2060  2260  2308  1
 2061  2261  2309  1
 2062  2262  2310  1
 2063  2263  2311  1
 2064  2264  2312  1
 2065  2265  2313  1
 2066  2266  2314  1
 2067  2267  2315  1
 2068  2268  2316  1
 2069  2269  2317  1
 2070  2270  2318  1
 2071  2271  2319  1
 2072  2272  2320  1
 2073  2273  2321  1
 2074  2274  2322  1
 2075  2275  2323  1
 2076  2276  2324  1
 2077  2277  2325  1
 2078  2278  2326  1
 2079  2279  2327  1
 2080  2280  2328  1
 2081  2281  2329  1
 2082  2282  2330  1
 2083  2283  2331  1
 2084  2284  2332  1
 2085  2285  2333  1
 2086  2286  2334  1
 2087  2287  2335  1
 2088  2288  2336  1
 2089  2289  2337  1
 2090  2290  2338  1
 2091  2291  2339  1
 2092  2292  2340  1
 2093  2293  2341  1
 2094  2294  2342  1
 2095  2295  2343  1
 2096  2296  2344  1
 2097  2297  2345  1
 2098  2298  2346  1
 2099  2299  2347  1
 2100  2300  2348  1
 2101  2301  2349  1
 2102  2302  2350  1
 2103  2303  2351  1
 2104  2304  2352  1
 2105  2305  2382  1
 2106  2305  2353  1
 2107  2306  2381  1
 2108  2306  2354  1
 2109  2307  2355  1
 2110  2307  2384  1
 2111  2308  2356  1
 2112  2308  2383  1
 2113  2309  2378  1
 2114  2309  2357  1
 2115  2310  2377  1
 2116  2310  2358  1
 2117  2311  2359  1
 2118  2311  2380  1
 2119  2312  2360  1
 2120  2312  2379  1
 2121  2313  2390  1
 2122  2313  2361  1
 2123  2314  2389  1
 2124  2314  2362  1
 2125  2315  2363  1
 2126  2315  2392  1
 2127  2316  2364  1
 2128  2316  2391  1
 2129  2317  2386  1
 2130  2317  2365  1
 2131  2318  2366  1
 2132  2318  2385  1
 2133  2319  2367  1
 2134  2319  2388  1
 2135  2320  2387  1
 2136  2320  2368  1
 2137  2321  2369  1
 2138  2321  2398  1
 2139  2322  2370  1
 2140  2322  2397  1
 2141  2323  2400  1
 2142  2323  2371  1
 2143  2324  2399  1
 2144  2324  2372  1
 2145  2325  2373  1
 2146  2325  2394  1
 2147  2326  2374  1
 2148  2326  2393  1
 2149  2327  2396  1
 2150  2327  2375  1
 2151  2328  2395  1
 2152  2328  2376  1
 2153  2329  2422  1
 2154  2329  2401  1
 2155  2330  2421  1
 2156  2330  2402  1
 2157  2331  2403  1
 2158  2331  2424  1
 2159  2332  2404  1
 2160  2332  2423  1
 2161  2333  2418  1
 2162  2333  2405  1
 2163  2334  2417  1
 2164  2334  2406  1
 2165  2335  2407  1
 2166  2335  2420  1
 2167  2336  2408  1
 2168  2336  2419  1
 2169  2337  2409  1
 2170  2337  2430  1
 2171  2338  2410  1
 2172  2338  2429  1
 2173  2339  2432  1
 2174  2339  2411  1
 2175  2340  2431  1
 2176  2340  2412  1
 2177  2341  2413  1
 2178  2341  2426  1
 2179  2342  2414  1
 2180  2342  2425  1
 2181  2343  2428  1
 2182  2343  2415  1
 2183  2344  2427  1
 2184  2344  2416  1
 2185  2345  2433  1
 2186  2345  2446  1
 2187  2346  2445  1
 2188  2346  2434  1
 2189  2347  2448  1
 2190  2347  2435  1
 2191  2348  2436  1
 2192  2348  2447  1
 2193  2349  2442  1
 2194  2349  2437  1
 2195  2350  2438  1
 2196  2350  2441  1
 2197  2351  2439  1
 2198  2351  2444  1
 2199  2352  2443  1
 2200  2352  2440  1
 2201  2353  2449  1
 2202  2354  2450  1
 2203  2355  2451  1
 2204  2356  2452  1
 2205  2357  2453  1
 2206  2358  2454  1
 2207  2359  2455  1
 2208  2360  2456  1
 2209  2361  2457  1
 2210  2362  2458  1
 2211  2363  2459  1
 2212  2364  2460  1
 2213  2365  2461  1
 2214  2366  2462  1
 2215  2367  2463  1
 2216  2368  2464  1
 2217  2369  3243  1
 2218  2369  2465  1
 2219  2370  2466  1
 2220  2370  3244  1
 2221  2371  2467  1
 2222  2371  3241  1
 2223  2372  2468  1
 2224  2372  3242  1
 2225  2373  3247  1
 2226  2373  2469  1
 2227  2374  3248  1
 2228  2374  2470  1
 2229  2375  3245  1
 2230  2375  2471  1
 2231  2376  3246  1
 2232  2376  2472  1
 2233  2377  2473  1
 2234  2378  2474  1
 2235  2379  2475  1
 2236  2380  2476  1
 2237  2381  2477  1
 2238  2382  2478  1
 2239  2383  2479  1
 2240  2384  2480  1
 2241  2385  2481  1
 2242  2386  2482  1
 2243  2387  2483  1
 2244  2388  2484  1
 2245  2389  2485  1
 2246  2390  2486  1
 2247  2391  2487  1
 2248  2392  2488  1
 2249  2393  3219  1
 2250  2393  2489  1
 2251  2394  3220  1
 2252  2394  2490  1
 2253  2395  3217  1
 2254  2395  2491  1
 2255  2396  3218  1
 2256  2396  2492  1
 2257  2397  3223  1
 2258  2397  2493  1
 2259  2398  2494  1
 2260  2398  3224  1
 2261  2399  2495  1
 2262  2399  3221  1
 2263  2400  2496  1
 2264  2400  3222  1
 2265  2401  2497  1
 2266  2401  2419  1
 2267  2402  2420  1
 2268  2402  2498  1
 2269  2403  2499  1
 2270  2403  2417  1
 2271  2404  2500  1
 2272  2404  2418  1
 2273  2405  2501  1
 2274  2405  2423  1
 2275  2406  2502  1
 2276  2406  2424  1
 2277  2407  2503  1
 2278  2407  2421  1
 2279  2408  2504  1
 2280  2408  2422  1
 2281  2409  2505  1
 2282  2409  2427  1
 2283  2410  2506  1
 2284  2410  2428  1
 2285  2411  2507  1
 2286  2411  2425  1
 2287  2412  2426  1
 2288  2412  2508  1
 2289  2413  2509  1
 2290  2413  2431  1
 2291  2414  2510  1
 2292  2414  2432  1
 2293  2415  2511  1
 2294  2415  2429  1
 2295  2416  2512  1
 2296  2416  2430  1
 2297  2417  2513  1
 2298  2418  2514  1
 2299  2419  2515  1
 2300  2420  2516  1
 2301  2421  2517  1
 2302  2422  2518  1
 2303  2423  2519  1
 2304  2424  2520  1
 2305  2425  2521  1
 2306  2426  2522  1
 2307  2427  2523  1
 2308  2428  2524  1
 2309  2429  2525  1
 2310  2430  2526  1
 2311  2431  2527  1
 2312  2432  2528  1
 2313  2433  2529  1
 2314  2433  2443  1
 2315  2434  2444  1
 2316  2434  2530  1
 2317  2435  2531  1
 2318  2435  2441  1
 2319  2436  2442  1
 2320  2436  2532  1
 2321  2437  2533  1
 2322  2437  2447  1
 2323  2438  2534  1
 2324  2438  2448  1
 2325  2439  2535  1
 2326  2439  2445  1
 2327  2440  2536  1
 2328  2440  2446  1
 2329  2441  2537  1
 2330  2442  2538  1
 2331  2443  2539  1
 2332  2444  2540  1
 2333  2445  2541  1
 2334  2446  2542  1
 2335  2447  2543  1
 2336  2448  2544  1
 2337  2585  2681  1
 2338  2586  2682  1
 2339  2587  2683  1
 2340  2588  2684  1
 2341  2589  2685  1
 2342  2590  2686  1
 2343  2591  2687  1
 2344  2592  2688  1
 2345  2593  2689  1
 2346  2594  2690  1
 2347  2595  2691  1
 2348  2596  2692  1
 2349  2597  2693  1
 2350  2598  2694  1
 2351  2599  2695  1
 2352  2600  2696  1
 2353  2601  2697  1
 2354  2602  2698  1
 2355  2603  2699  1
 2356  2604  2700  1
 2357  2605  2701  1
 2358  2606  2702  1
 2359  2607  2703  1
 2360  2608  2704  1
 2361  2609  2686  1
 2362  2610  2685  1
 2363  2611  2688  1
 2364  2612  2687  1
 2365  2613  2682  1
 2366  2614  2681  1
 2367  2615  2684  1
 2368  2616  2683  1
 2369  2617  2694  1
 2370  2618  2693  1
 2371  2619  2696  1
 2372  2620  2695  1
 2373  2621  2690  1
 2374  2622  2689  1
 2375  2623  2692  1
 2376  2624  2691  1
 2377  2625  2702  1
 2378  2626  2701  1
 2379  2627  2704  1
 2380  2628  2703  1
 2381  2629  2698  1
 2382  2630  2697  1
 2383  2631  2700  1
 2384  2632  2699  1
 2385  2633  2705  1
 2386  2634  2706  1
 2387  2635  2707  1
 2388  2636  2708  1
 2389  2637  2709  1
 2390  2638  2710  1
 2391  2639  2711  1
 2392  2640  2712  1
 2393  2641  2713  1
 2394  2642  2714  1
 2395  2643  2715  1
 2396  2644  2716  1
 2397  2645  2717  1
 2398  2646  2718  1
 2399  2647  2719  1
 2400  2648  2720  1
 2401  2649  2710  1
 2402  2650  2709  1
 2403  2651  2712  1
 2404  2652  2711  1
 2405  2653  2706  1
 2406  2654  2705  1
 2407  2655  2708  1
 2408  2656  2707  1
 2409  2657  2718  1
 2410  2658  2717  1
 2411  2659  2720  1
 2412  2660  2719  1
 2413  2661  2714  1
 2414  2662  2713  1
 2415  2663  2716  1
 2416  2664  2715  1
 2417  2665  2721  1
 2418  2666  2722  1
 2419  2667  2723  1
 2420  2668  2724  1
 2421  2669  2725  1
 2422  2670  2726  1
 2423  2671  2727  1
 2424  2672  2728  1
 2425  2673  2726  1
 2426  2674  2725  1
 2427  2675  2728  1
 2428  2676  2727  1
 2429  2677  2722  1
 2430  2678  2721  1
 2431  2679  2724  1
 2432  2680  2723  1
 2433  2681  2729  1
 2434  2682  2730  1
 2435  2683  2731  1
 2436  2684  2732  1
 2437  2685  2733  1
 2438  2686  2734  1
 2439  2687  2735  1
 2440  2688  2736  1
 2441  2689  2737  1
 2442  2690  2738  1
 2443  2691  2739  1
 2444  2692  2740  1
 2445  2693  2741  1
 2446  2694  2742  1
 2447  2695  2743  1
 2448  2696  2744  1
 2449  2697  2745  1
 2450  2698  2746  1
 2451  2699  2747  1
 2452  2700  2748  1
 2453  2701  2749  1
 2454  2702  2750  1
 2455  2703  2751  1
 2456  2704  2752  1
 2457  2705  2753  1
 2458  2706  2754  1
 2459  2707  2755  1
 2460  2708  2756  1
 2461  2709  2757  1
 2462  2710  2758  1
 2463  2711  2759  1
 2464  2712  2760  1
 2465  2713  2761  1
 2466  2714  2762  1
 2467  2715  2763  1
 2468  2716  2764  1
 2469  2717  2765  1
 2470  2718  2766  1
 2471  2719  2767  1
 2472  2720  2768  1
 2473  2721  2769  1
 2474  2722  2770  1
 2475  2723  2771  1
 2476  2724  2772  1
 2477  2725  2773  1
 2478  2726  2774  1
 2479  2727  2775  1
 2480  2728  2776  1
 2481  2729  2806  1
 2482  2729  2777  1
 2483  2730  2805  1
 2484  2730  2778  1
 2485  2731  2779  1
 2486  2731  2808  1
 2487  2732  2780  1
 2488  2732  2807  1
 2489  2733  2802  1
 2490  2733  2781  1
 2491  2734  2801  1
 2492  2734  2782  1
 2493  2735  2783  1
 2494  2735  2804  1
 2495  2736  2784  1
 2496  2736  2803  1
 2497  2737  2814  1
 2498  2737  2785  1
 2499  2738  2813  1
 2500  2738  2786  1
 2501  2739  2787  1
 2502  2739  2816  1
 2503  2740  2788  1
 2504  2740  2815  1
 2505  2741  2810  1
 2506  2741  2789  1
 2507  2742  2809  1
 2508  2742  2790  1
 2509  2743  2791  1
 2510  2743  2812  1
 2511  2744  2792  1
 2512  2744  2811  1
 2513  2745  2793  1
 2514  2745  2822  1
 2515  2746  2794  1
 2516  2746  2821  1
 2517  2747  2824  1
 2518  2747  2795  1
 2519  2748  2823  1
 2520  2748  2796  1
 2521  2749  2797  1
 2522  2749  2818  1
 2523  2750  2798  1
 2524  2750  2817  1
 2525  2751  2820  1
 2526  2751  2799  1
 2527  2752  2819  1
 2528  2752  2800  1
 2529  2753  2846  1
 2530  2753  2825  1
 2531  2754  2845  1
 2532  2754  2826  1
 2533  2755  2827  1
 2534  2755  2848  1
 2535  2756  2828  1
 2536  2756  2847  1
 2537  2757  2842  1
 2538  2757  2829  1
 2539  2758  2841  1
 2540  2758  2830  1
 2541  2759  2831  1
 2542  2759  2844  1
 2543  2760  2832  1
 2544  2760  2843  1
 2545  2761  2833  1
 2546  2761  2854  1
 2547  2762  2834  1
 2548  2762  2853  1
 2549  2763  2856  1
 2550  2763  2835  1
 2551  2764  2855  1
 2552  2764  2836  1
 2553  2765  2837  1
 2554  2765  2850  1
 2555  2766  2838  1
 2556  2766  2849  1
 2557  2767  2852  1
 2558  2767  2839  1
 2559  2768  2851  1
 2560  2768  2840  1
 2561  2769  2870  1
 2562  2769  2857  1
 2563  2770  2869  1
 2564  2770  2858  1
 2565  2771  2859  1
 2566  2771  2872  1
 2567  2772  2860  1
 2568  2772  2871  1
 2569  2773  2866  1
 2570  2773  2861  1
 2571  2774  2865  1
 2572  2774  2862  1
 2573  2775  2863  1
 2574  2775  2868  1
 2575  2776  2864  1
 2576  2776  2867  1
 2577  2777  2873  1
 2578  2777  3227  1
 2579  2778  2874  1
 2580  2778  3228  1
 2581  2779  2875  1
 2582  2779  3225  1
 2583  2780  2876  1
 2584  2780  3226  1
 2585  2781  3231  1
 2586  2781  2877  1
 2587  2782  3232  1
 2588  2782  2878  1
 2589  2783  3229  1
 2590  2783  2879  1
 2591  2784  3230  1
 2592  2784  2880  1
 2593  2785  2881  1
 2594  2786  2882  1
 2595  2787  2883  1
 2596  2788  2884  1
 2597  2789  2885  1
 2598  2790  2886  1
 2599  2791  2887  1
 2600  2792  2888  1
 2601  2793  2889  1
 2602  2794  2890  1
 2603  2795  2891  1
 2604  2796  2892  1
 2605  2797  2893  1
 2606  2798  2894  1
 2607  2799  2895  1
 2608  2800  2896  1
 2609  2801  3203  1
 2610  2801  2897  1
 2611  2802  3204  1
 2612  2802  2898  1
 2613  2803  3201  1
 2614  2803  2899  1
 2615  2804  3202  1
 2616  2804  2900  1
 2617  2805  2901  1
 2618  2805  3207  1
 2619  2806  2902  1
 2620  2806  3208  1
 2621  2807  2903  1
 2622  2807  3205  1
 2623  2808  2904  1
 2624  2808  3206  1
 2625  2809  2905  1
 2626  2810  2906  1
 2627  2811  2907  1
 2628  2812  2908  1
 2629  2813  2909  1
 2630  2814  2910  1
 2631  2815  2911  1
 2632  2816  2912  1
 2633  2817  2913  1
 2634  2818  2914  1
 2635  2819  2915  1
 2636  2820  2916  1
 2637  2821  2917  1
 2638  2822  2918  1
 2639  2823  2919  1
 2640  2824  2920  1
 2641  2825  2921  1
 2642  2825  2843  1
 2643  2826  2922  1
 2644  2826  2844  1
 2645  2827  2923  1
 2646  2827  2841  1
 2647  2828  2924  1
 2648  2828  2842  1
 2649  2829  2925  1
 2650  2829  2847  1
 2651  2830  2926  1
 2652  2830  2848  1
 2653  2831  2927  1
 2654  2831  2845  1
 2655  2832  2928  1
 2656  2832  2846  1
 2657  2833  2929  1
 2658  2833  2851  1
 2659  2834  2930  1
 2660  2834  2852  1
 2661  2835  2931  1
 2662  2835  2849  1
 2663  2836  2932  1
 2664  2836  2850  1
 2665  2837  2933  1
 2666  2837  2855  1
 2667  2838  2934  1
 2668  2838  2856  1
 2669  2839  2935  1
 2670  2839  2853  1
 2671  2840  2936  1
 2672  2840  2854  1
 2673  2841  2937  1
 2674  2842  2938  1
 2675  2843  2939  1
 2676  2844  2940  1
 2677  2845  2941  1
 2678  2846  2942  1
 2679  2847  2943  1
 2680  2848  2944  1
 2681  2849  2945  1
 2682  2850  2946  1
 2683  2851  2947  1
 2684  2852  2948  1
 2685  2853  2949  1
 2686  2854  2950  1
 2687  2855  2951  1
 2688  2856  2952  1
 2689  2857  2953  1
 2690  2857  2867  1
 2691  2858  2868  1
 2692  2858  2954  1
 2693  2859  2955  1
 2694  2859  2865  1
 2695  2860  2866  1
 2696  2860  2956  1
 2697  2861  2957  1
 2698  2861  2871  1
 2699  2862  2958  1
 2700  2862  2872  1
 2701  2863  2959  1
 2702  2863  2869  1
 2703  2864  2960  1
 2704  2864  2870  1
 2705  2865  2961  1
 2706  2866  2962  1
 2707  2867  2963  1
 2708  2868  2964  1
 2709  2869  2965  1
 2710  2870  2966  1
 2711  2871  2967  1
 2712  2872  2968  1
 2713  3009  3105  1
 2714  3010  3106  1
 2715  3011  3107  1
 2716  3012  3108  1
 2717  3013  3109  1
 2718  3014  3110  1
 2719  3015  3111  1
 2720  3016  3112  1
 2721  3017  3113  1
 2722  3018  3114  1
 2723  3019  3115  1
 2724  3020  3116  1
 2725  3021  3117  1
 2726  3022  3118  1
 2727  3023  3119  1
 2728  3024  3120  1
 2729  3025  3121  1
 2730  3026  3122  1
 2731  3027  3123  1
 2732  3028  3124  1
 2733  3029  3125  1
 2734  3030  3126  1
 2735  3031  3127  1
 2736  3032  3128  1
 2737  3033  3110  1
 2738  3034  3109  1
 2739  3035  3112  1
 2740  3036  3111  1
 2741  3037  3106  1
 2742  3038  3105  1
 2743  3039  3108  1
 2744  3040  3107  1
 2745  3041  3118  1
 2746  3042  3117  1
 2747  3043  3120  1
 2748  3044  3119  1
 2749  3045  3114  1
 2750  3046  3113  1
 2751  3047  3116  1
 2752  3048  3115  1
 2753  3049  3126  1
 2754  3050  3125  1
 2755  3051  3128  1
 2756  3052  3127  1
 2757  3053  3122  1
 2758  3054  3121  1
 2759  3055  3124  1
 2760  3056  3123  1
 2761  3057  3129  1
 2762  3058  3130  1
 2763  3059  3131  1
 2764  3060  3132  1
 2765  3061  3133  1
 2766  3062  3134  1
 2767  3063  3135  1
 2768  3064  3136  1
 2769  3065  3137  1
 2770  3066  3138  1
 2771  3067  3139  1
 2772  3068  3140  1
 2773  3069  3141  1
 2774  3070  3142  1
 2775  3071  3143  1
 2776  3072  3144  1
 2777  3073  3134  1
 2778  3074  3133  1
 2779  3075  3136  1
 2780  3076  3135  1
 2781  3077  3130  1
 2782  3078  3129  1
 2783  3079  3132  1
 2784  3080  3131  1
 2785  3081  3142  1
 2786  3082  3141  1
 2787  3083  3144  1
 2788  3084  3143  1
 2789  3085  3138  1
 2790  3086  3137  1
 2791  3087  3140  1
 2792  3088  3139  1
 2793  3089  3145  1
 2794  3090  3146  1
 2795  3091  3147  1
 2796  3092  3148  1
 2797  3093  3149  1
 2798  3094  3150  1
 2799  3095  3151  1
 2800  3096  3152  1
 2801  3097  3150  1
 2802  3098  3149  1
 2803  3099  3152  1
 2804  3100  3151  1
 2805  3101  3146  1
 2806  3102  3145  1
 2807  3103  3148  1
 2808  3104  3147  1
 2809  3105  3153  1
 2810  3106  3154  1
 2811  3107  3155  1
 2812  3108  3156  1
 2813  3109  3157  1
 2814  3110  3158  1
 2815  3111  3159  1
 2816  3112  3160  1
 2817  3113  3161  1
 2818  3114  3162  1
 2819  3115  3163  1
 2820  3116  3164  1
 2821  3117  3165  1
 2822  3118  3166  1
 2823  3119  3167  1
 2824  3120  3168  1
 2825  3121  3169  1
 2826  3122  3170  1
 2827  3123  3171  1
 2828  3124  3172  1
 2829  3125  3173  1
 2830  3126  3174  1
 2831  3127  3175  1
 2832  3128  3176  1
 2833  3129  3177  1
 2834  3130  3178  1
 2835  3131  3179  1
 2836  3132  3180  1
 2837  3133  3181  1
 2838  3134  3182  1
 2839  3135  3183  1
 2840  3136  3184  1
 2841  3137  3185  1
 2842  3138  3186  1
 2843  3139  3187  1
 2844  3140  3188  1
 2845  3141  3189  1
 2846  3142  3190  1
 2847  3143  3191  1
 2848  3144  3192  1
 2849  3145  3193  1
 2850  3146  3194  1
 2851  3147  3195  1
 2852  3148  3196  1
 2853  3149  3197  1
 2854  3150  3198  1
 2855  3151  3199  1
 2856  3152  3200  1
 2857  3153  3230  1
 2858  3153  3201  1
 2859  3154  3229  1
 2860  3154  3202  1
 2861  3155  3203  1
 2862  3155  3232  1
 2863  3156  3204  1
 2864  3156  3231  1
 2865  3157  3226  1
 2866  3157  3205  1
 2867  3158  3225  1
 2868  3158  3206  1
 2869  3159  3207  1
 2870  3159  3228  1
 2871  3160  3208  1
 2872  3160  3227  1
 2873  3161  3238  1
 2874  3161  3209  1
 2875  3162  3237  1
 2876  3162  3210  1
 2877  3163  3211  1
 2878  3163  3240  1
 2879  3164  3212  1
 2880  3164  3239  1
 2881  3165  3234  1
 2882  3165  3213  1
 2883  3166  3233  1
 2884  3166  3214  1
 2885  3167  3215  1
 2886  3167  3236  1
 2887  3168  3216  1
 2888  3168  3235  1
 2889  3169  3217  1
 2890  3169  3246  1
 2891  3170  3218  1
 2892  3170  3245  1
 2893  3171  3248  1
 2894  3171  3219  1
 2895  3172  3247  1
 2896  3172  3220  1
 2897  3173  3221  1
 2898  3173  3242  1
 2899  3174  3222  1
 2900  3174  3241  1
 2901  3175  3244  1
 2902  3175  3223  1
 2903  3176  3243  1
 2904  3176  3224  1
 2905  3177  3270  1
 2906  3177  3249  1
 2907  3178  3269  1
 2908  3178  3250  1
 2909  3179  3251  1
 2910  3179  3272  1
 2911  3180  3252  1
 2912  3180  3271  1
 2913  3181  3266  1
 2914  3181  3253  1
 2915  3182  3265  1
 2916  3182  3254  1
 2917  3183  3255  1
 2918  3183  3268  1
 2919  3184  3256  1
 2920  3184  3267  1
 2921  3185  3257  1
 2922  3185  3278  1
 2923  3186  3258  1
 2924  3186  3277  1
 2925  3187  3280  1
 2926  3187  3259  1
 2927  3188  3279  1
 2928  3188  3260  1
 2929  3189  3261  1
 2930  3189  3274  1
 2931  3190  3262  1
 2932  3190  3273  1
 2933  3191  3276  1
 2934  3191  3263  1
 2935  3192  3275  1
 2936  3192  3264  1
 2937  3193  3294  1
 2938  3193  3281  1
 2939  3194  3293  1
 2940  3194  3282  1
 2941  3195  3283  1
 2942  3195  3296  1
 2943  3196  3284  1
 2944  3196  3295  1
 2945  3197  3290  1
 2946  3197  3285  1
 2947  3198  3289  1
 2948  3198  3286  1
 2949  3199  3287  1
 2950  3199  3292  1
 2951  3200  3288  1
 2952  3200  3291  1
 2953  3201  3297  1
 2954  3202  3298  1
 2955  3203  3299  1
 2956  3204  3300  1
 2957  3205  3301  1
 2958  3206  3302  1
 2959  3207  3303  1
 2960  3208  3304  1
 2961  3209  3305  1
 2962  3210  3306  1
 2963  3211  3307  1
 2964  3212  3308  1
 2965  3213  3309  1
 2966  3214  3310  1
 2967  3215  3311  1
 2968  3216  3312  1
 2969  3217  3313  1
 2970  3218  3314  1
 2971  3219  3315  1
 2972  3220  3316  1
 2973  3221  3317  1
 2974  3222  3318  1
 2975  3223  3319  1
 2976  3224  3320  1
 2977  3225  3321  1
 2978  3226  3322  1
 2979  3227  3323  1
 2980  3228  3324  1
 2981  3229  3325  1
 2982  3230  3326  1
 2983  3231  3327  1
 2984  3232  3328  1
 2985  3233  3329  1
 2986  3234  3330  1
 2987  3235  3331  1
 2988  3236  3332  1
 2989  3237  3333  1
 2990  3238  3334  1
 2991  3239  3335  1
 2992  3240  3336  1
 2993  3241  3337  1
 2994  3242  3338  1
 2995  3243  3339  1
 2996  3244  3340  1
 2997  3245  3341  1
 2998  3246  3342  1
 2999  3247  3343  1
 3000  3248  3344  1
 3001  3249  3345  1
 3002  3249  3267  1
 3003  3250  3346  1
 3004  3250  3268  1
 3005  3251  3347  1
 3006  3251  3265  1
 3007  3252  3348  1
 3008  3252  3266  1
 3009  3253  3349  1
 3010  3253  3271  1
 3011  3254  3350  1
 3012  3254  3272  1
 3013  3255  3351  1
 3014  3255  3269  1
 3015  3256  3352  1
 3016  3256  3270  1
 3017  3257  3353  1
 3018  3257  3275  1
 3019  3258  3354  1
 3020  3258  3276  1
 3021  3259  3355  1
 3022  3259  3273  1
 3023  3260  3274  1
 3024  3260  3356  1
 3025  3261  3357  1
 3026  3261  3279  1
 3027  3262  3358  1
 3028  3262  3280  1
 3029  3263  3359  1
 3030  3263  3277  1
 3031  3264  3360  1
 3032  3264  3278  1
 3033  3265  3361  1
 3034  3266  3362  1
 3035  3267  3363  1
 3036  3268  3364  1
 3037  3269  3365  1
 3038  3270  3366  1
 3039  3271  3367  1
 3040  3272  3368  1
 3041  3273  3369  1
 3042  3274  3370  1
 3043  3275  3371  1
 3044  3276  3372  1
 3045  3277  3373  1
 3046  3278  3374  1
 3047  3279  3375  1
 3048  3280  3376  1
 3049  3281  3377  1
 3050  3281  3291  1
 3051  3282  3378  1
 3052  3282  3292  1
 3053  3283  3379  1
 3054  3283  3289  1
 3055  3284  3290  1
 3056  3284  3380  1
 3057  3285  3381  1
 3058  3285  3295  1
 3059  3286  3382  1
 3060  3286  3296  1
 3061  3287  3383  1
 3062  3287  3293  1
 3063  3288  3384  1
 3064  3288  3294  1
 3065  3289  3385  1
 3066  3290  3386  1
 3067  3291  3387  1
 3068  3292  3388  1
 3069  3293  3389  1
 3070  3294  3390  1
 3071  3295  3391  1
 3072  3296  3392  1

@<TRIPOS>SUBSTRUCTURE
1 ****        1 TEMP                        0 ****  **** 0 ROOT
