@<TRIPOS>MOLECULE
IRMOF-1
  424  384    1    0    0
SMALL
NO_CHARGES
****
Energy = 0

@<TRIPOS>ATOM
      1 _Zn1        7.5791    5.3369    5.3369 _Zn1    1             0.000000
      2 _Zn1       20.4951    7.5791    5.3369 _Zn1    1             0.000000
      3 _Zn1       18.2529   20.4951    5.3369 _Zn1    1             0.000000
      4 _Zn1        5.3369   18.2529    5.3369 _Zn1    1             0.000000
      5 _Zn1        7.5791   20.4951   20.4951 _Zn1    1             0.000000
      6 _Zn1       20.4951   18.2529   20.4951 _Zn1    1             0.000000
      7 _Zn1       18.2529    5.3369   20.4951 _Zn1    1             0.000000
      8 _Zn1        5.3369    7.5791   20.4951 _Zn1    1             0.000000
      9 _Zn1        5.3369    7.5791    5.3369 _Zn1    1             0.000000
     10 _Zn1        5.3369   20.4951    7.5791 _Zn1    1             0.000000
     11 _Zn1        5.3369   18.2529   20.4951 _Zn1    1             0.000000
     12 _Zn1        5.3369    5.3369   18.2529 _Zn1    1             0.000000
     13 _Zn1       20.4951    7.5791   20.4951 _Zn1    1             0.000000
     14 _Zn1       20.4951   20.4951   18.2529 _Zn1    1             0.000000
     15 _Zn1       20.4951   18.2529    5.3369 _Zn1    1             0.000000
     16 _Zn1       20.4951    5.3369    7.5791 _Zn1    1             0.000000
     17 _Zn1       18.2529    5.3369    5.3369 _Zn1    1             0.000000
     18 _Zn1        5.3369    5.3369    7.5791 _Zn1    1             0.000000
     19 _Zn1        7.5791    5.3369   20.4951 _Zn1    1             0.000000
     20 _Zn1       20.4951    5.3369   18.2529 _Zn1    1             0.000000
     21 _Zn1       18.2529   20.4951   20.4951 _Zn1    1             0.000000
     22 _Zn1        5.3369   20.4951   18.2529 _Zn1    1             0.000000
     23 _Zn1        7.5791   20.4951    5.3369 _Zn1    1             0.000000
     24 _Zn1       20.4951   20.4951    7.5791 _Zn1    1             0.000000
     25 _Zn1        7.5791   18.2529   18.2529 _Zn1    1             0.000000
     26 _Zn1       18.2529    7.5791   18.2529 _Zn1    1             0.000000
     27 _Zn1        7.5791    7.5791    7.5791 _Zn1    1             0.000000
     28 _Zn1       18.2529   18.2529    7.5791 _Zn1    1             0.000000
     29 _Zn1       18.2529   18.2529   18.2529 _Zn1    1             0.000000
     30 _Zn1        7.5791   18.2529    7.5791 _Zn1    1             0.000000
     31 _Zn1       18.2529    7.5791    7.5791 _Zn1    1             0.000000
     32 _Zn1        7.5791    7.5791   18.2529 _Zn1    1             0.000000
     33  _O1        6.4580    6.4580    6.4580  _O1    1             0.000000
     34  _O1       19.3740    6.4580    6.4580  _O1    1             0.000000
     35  _O1       19.3740   19.3740    6.4580  _O1    1             0.000000
     36  _O1        6.4580   19.3740    6.4580  _O1    1             0.000000
     37  _O1        6.4580   19.3740   19.3740  _O1    1             0.000000
     38  _O1       19.3740   19.3740   19.3740  _O1    1             0.000000
     39  _O1       19.3740    6.4580   19.3740  _O1    1             0.000000
     40  _O1        6.4580    6.4580   19.3740  _O1    1             0.000000
     41  _O2        7.2820    5.6340    3.4615  _O2    1             0.000000
     42  _O2       20.1980    7.2820    3.4615  _O2    1             0.000000
     43  _O2       18.5500   20.1980    3.4615  _O2    1             0.000000
     44  _O2        5.6340   18.5500    3.4615  _O2    1             0.000000
     45  _O2        7.2820   20.1980   22.3705  _O2    1             0.000000
     46  _O2       20.1980   18.5500   22.3705  _O2    1             0.000000
     47  _O2       18.5500    5.6340   22.3705  _O2    1             0.000000
     48  _O2        5.6340    7.2820   22.3705  _O2    1             0.000000
     49  _O2        3.4615    7.2820    5.6340  _O2    1             0.000000
     50  _O2        3.4615   20.1980    7.2820  _O2    1             0.000000
     51  _O2        3.4615   18.5500   20.1980  _O2    1             0.000000
     52  _O2        3.4615    5.6340   18.5500  _O2    1             0.000000
     53  _O2       22.3705    7.2820   20.1980  _O2    1             0.000000
     54  _O2       22.3705   20.1980   18.5500  _O2    1             0.000000
     55  _O2       22.3705   18.5500    5.6340  _O2    1             0.000000
     56  _O2       22.3705    5.6340    7.2820  _O2    1             0.000000
     57  _O2       18.5500    3.4615    5.6340  _O2    1             0.000000
     58  _O2        5.6340    3.4615    7.2820  _O2    1             0.000000
     59  _O2        7.2820    3.4615   20.1980  _O2    1             0.000000
     60  _O2       20.1980    3.4615   18.5500  _O2    1             0.000000
     61  _O2       18.5500   22.3705   20.1980  _O2    1             0.000000
     62  _O2        5.6340   22.3705   18.5500  _O2    1             0.000000
     63  _O2        7.2820   22.3705    5.6340  _O2    1             0.000000
     64  _O2       20.1980   22.3705    7.2820  _O2    1             0.000000
     65  _O2       18.5500   20.1980   22.3705  _O2    1             0.000000
     66  _O2        5.6340   18.5500   22.3705  _O2    1             0.000000
     67  _O2        7.2820    5.6340   22.3705  _O2    1             0.000000
     68  _O2       20.1980    7.2820   22.3705  _O2    1             0.000000
     69  _O2       18.5500    5.6340    3.4615  _O2    1             0.000000
     70  _O2        5.6340    7.2820    3.4615  _O2    1             0.000000
     71  _O2        7.2820   20.1980    3.4615  _O2    1             0.000000
     72  _O2       20.1980   18.5500    3.4615  _O2    1             0.000000
     73  _O2       22.3705   18.5500   20.1980  _O2    1             0.000000
     74  _O2       22.3705    5.6340   18.5500  _O2    1             0.000000
     75  _O2       22.3705    7.2820    5.6340  _O2    1             0.000000
     76  _O2       22.3705   20.1980    7.2820  _O2    1             0.000000
     77  _O2        3.4615   18.5500    5.6340  _O2    1             0.000000
     78  _O2        3.4615    5.6340    7.2820  _O2    1             0.000000
     79  _O2        3.4615    7.2820   20.1980  _O2    1             0.000000
     80  _O2        3.4615   20.1980   18.5500  _O2    1             0.000000
     81  _O2        7.2820   22.3705   20.1980  _O2    1             0.000000
     82  _O2       20.1980   22.3705   18.5500  _O2    1             0.000000
     83  _O2       18.5500   22.3705    5.6340  _O2    1             0.000000
     84  _O2        5.6340   22.3705    7.2820  _O2    1             0.000000
     85  _O2        7.2820    3.4615    5.6340  _O2    1             0.000000
     86  _O2       20.1980    3.4615    7.2820  _O2    1             0.000000
     87  _O2       18.5500    3.4615   20.1980  _O2    1             0.000000
     88  _O2        5.6340    3.4615   18.5500  _O2    1             0.000000
     89  _O2        7.2820   18.5500   16.3775  _O2    1             0.000000
     90  _O2       20.1980   20.1980   16.3775  _O2    1             0.000000
     91  _O2       18.5500    7.2820   16.3775  _O2    1             0.000000
     92  _O2        5.6340    5.6340   16.3775  _O2    1             0.000000
     93  _O2        7.2820    7.2820    9.4545  _O2    1             0.000000
     94  _O2       20.1980    5.6340    9.4545  _O2    1             0.000000
     95  _O2       18.5500   18.5500    9.4545  _O2    1             0.000000
     96  _O2        5.6340   20.1980    9.4545  _O2    1             0.000000
     97  _O2       18.5500   16.3775   18.5500  _O2    1             0.000000
     98  _O2        5.6340   16.3775   20.1980  _O2    1             0.000000
     99  _O2        7.2820   16.3775    7.2820  _O2    1             0.000000
    100  _O2       20.1980   16.3775    5.6340  _O2    1             0.000000
    101  _O2       18.5500    9.4545    7.2820  _O2    1             0.000000
    102  _O2        5.6340    9.4545    5.6340  _O2    1             0.000000
    103  _O2        7.2820    9.4545   18.5500  _O2    1             0.000000
    104  _O2       20.1980    9.4545   20.1980  _O2    1             0.000000
    105  _O2       18.5500    7.2820    9.4545  _O2    1             0.000000
    106  _O2        5.6340    5.6340    9.4545  _O2    1             0.000000
    107  _O2        7.2820   18.5500    9.4545  _O2    1             0.000000
    108  _O2       20.1980   20.1980    9.4545  _O2    1             0.000000
    109  _O2       18.5500   18.5500   16.3775  _O2    1             0.000000
    110  _O2        5.6340   20.1980   16.3775  _O2    1             0.000000
    111  _O2        7.2820    7.2820   16.3775  _O2    1             0.000000
    112  _O2       20.1980    5.6340   16.3775  _O2    1             0.000000
    113  _O2        7.2820    9.4545    7.2820  _O2    1             0.000000
    114  _O2       20.1980    9.4545    5.6340  _O2    1             0.000000
    115  _O2       18.5500    9.4545   18.5500  _O2    1             0.000000
    116  _O2        5.6340    9.4545   20.1980  _O2    1             0.000000
    117  _O2        7.2820   16.3775   18.5500  _O2    1             0.000000
    118  _O2       20.1980   16.3775   20.1980  _O2    1             0.000000
    119  _O2       18.5500   16.3775    7.2820  _O2    1             0.000000
    120  _O2        5.6340   16.3775    5.6340  _O2    1             0.000000
    121  _O2       16.3775    7.2820   18.5500  _O2    1             0.000000
    122  _O2       16.3775   20.1980   20.1980  _O2    1             0.000000
    123  _O2       16.3775   18.5500    7.2820  _O2    1             0.000000
    124  _O2       16.3775    5.6340    5.6340  _O2    1             0.000000
    125  _O2        9.4545    7.2820    7.2820  _O2    1             0.000000
    126  _O2        9.4545   20.1980    5.6340  _O2    1             0.000000
    127  _O2        9.4545   18.5500   18.5500  _O2    1             0.000000
    128  _O2        9.4545    5.6340   20.1980  _O2    1             0.000000
    129  _O2        9.4545   18.5500    7.2820  _O2    1             0.000000
    130  _O2        9.4545    5.6340    5.6340  _O2    1             0.000000
    131  _O2        9.4545    7.2820   18.5500  _O2    1             0.000000
    132  _O2        9.4545   20.1980   20.1980  _O2    1             0.000000
    133  _O2       16.3775   18.5500   18.5500  _O2    1             0.000000
    134  _O2       16.3775    5.6340   20.1980  _O2    1             0.000000
    135  _O2       16.3775    7.2820    7.2820  _O2    1             0.000000
    136  _O2       16.3775   20.1980    5.6340  _O2    1             0.000000
    137  _C1        6.4580    6.4580    2.8751  _C1    1             0.000000
    138  _C1       19.3740    6.4580    2.8751  _C1    1             0.000000
    139  _C1       19.3740   19.3740    2.8751  _C1    1             0.000000
    140  _C1        6.4580   19.3740    2.8751  _C1    1             0.000000
    141  _C1        6.4580   19.3740   22.9569  _C1    1             0.000000
    142  _C1       19.3740   19.3740   22.9569  _C1    1             0.000000
    143  _C1       19.3740    6.4580   22.9569  _C1    1             0.000000
    144  _C1        6.4580    6.4580   22.9569  _C1    1             0.000000
    145  _C1        2.8751    6.4580    6.4580  _C1    1             0.000000
    146  _C1        2.8751   19.3740    6.4580  _C1    1             0.000000
    147  _C1        2.8751   19.3740   19.3740  _C1    1             0.000000
    148  _C1        2.8751    6.4580   19.3740  _C1    1             0.000000
    149  _C1       22.9569    6.4580   19.3740  _C1    1             0.000000
    150  _C1       22.9569   19.3740   19.3740  _C1    1             0.000000
    151  _C1       22.9569   19.3740    6.4580  _C1    1             0.000000
    152  _C1       22.9569    6.4580    6.4580  _C1    1             0.000000
    153  _C1       19.3740    2.8751    6.4580  _C1    1             0.000000
    154  _C1        6.4580    2.8751    6.4580  _C1    1             0.000000
    155  _C1        6.4580    2.8751   19.3740  _C1    1             0.000000
    156  _C1       19.3740    2.8751   19.3740  _C1    1             0.000000
    157  _C1       19.3740   22.9569   19.3740  _C1    1             0.000000
    158  _C1        6.4580   22.9569   19.3740  _C1    1             0.000000
    159  _C1        6.4580   22.9569    6.4580  _C1    1             0.000000
    160  _C1       19.3740   22.9569    6.4580  _C1    1             0.000000
    161  _C1        6.4580   19.3740   15.7911  _C1    1             0.000000
    162  _C1       19.3740   19.3740   15.7911  _C1    1             0.000000
    163  _C1       19.3740    6.4580   15.7911  _C1    1             0.000000
    164  _C1        6.4580    6.4580   15.7911  _C1    1             0.000000
    165  _C1        6.4580    6.4580   10.0409  _C1    1             0.000000
    166  _C1       19.3740    6.4580   10.0409  _C1    1             0.000000
    167  _C1       19.3740   19.3740   10.0409  _C1    1             0.000000
    168  _C1        6.4580   19.3740   10.0409  _C1    1             0.000000
    169  _C1       19.3740   15.7911   19.3740  _C1    1             0.000000
    170  _C1        6.4580   15.7911   19.3740  _C1    1             0.000000
    171  _C1        6.4580   15.7911    6.4580  _C1    1             0.000000
    172  _C1       19.3740   15.7911    6.4580  _C1    1             0.000000
    173  _C1       19.3740   10.0409    6.4580  _C1    1             0.000000
    174  _C1        6.4580   10.0409    6.4580  _C1    1             0.000000
    175  _C1        6.4580   10.0409   19.3740  _C1    1             0.000000
    176  _C1       19.3740   10.0409   19.3740  _C1    1             0.000000
    177  _C1       15.7911    6.4580   19.3740  _C1    1             0.000000
    178  _C1       15.7911   19.3740   19.3740  _C1    1             0.000000
    179  _C1       15.7911   19.3740    6.4580  _C1    1             0.000000
    180  _C1       15.7911    6.4580    6.4580  _C1    1             0.000000
    181  _C1       10.0409    6.4580    6.4580  _C1    1             0.000000
    182  _C1       10.0409   19.3740    6.4580  _C1    1             0.000000
    183  _C1       10.0409   19.3740   19.3740  _C1    1             0.000000
    184  _C1       10.0409    6.4580   19.3740  _C1    1             0.000000
    185  _C2        6.4580    6.4580    1.3898  _C2    1             0.000000
    186  _C2       19.3740    6.4580    1.3898  _C2    1             0.000000
    187  _C2       19.3740   19.3740    1.3898  _C2    1             0.000000
    188  _C2        6.4580   19.3740    1.3898  _C2    1             0.000000
    189  _C2        6.4580   19.3740   24.4422  _C2    1             0.000000
    190  _C2       19.3740   19.3740   24.4422  _C2    1             0.000000
    191  _C2       19.3740    6.4580   24.4422  _C2    1             0.000000
    192  _C2        6.4580    6.4580   24.4422  _C2    1             0.000000
    193  _C2        1.3898    6.4580    6.4580  _C2    1             0.000000
    194  _C2        1.3898   19.3740    6.4580  _C2    1             0.000000
    195  _C2        1.3898   19.3740   19.3740  _C2    1             0.000000
    196  _C2        1.3898    6.4580   19.3740  _C2    1             0.000000
    197  _C2       24.4422    6.4580   19.3740  _C2    1             0.000000
    198  _C2       24.4422   19.3740   19.3740  _C2    1             0.000000
    199  _C2       24.4422   19.3740    6.4580  _C2    1             0.000000
    200  _C2       24.4422    6.4580    6.4580  _C2    1             0.000000
    201  _C2       19.3740    1.3898    6.4580  _C2    1             0.000000
    202  _C2        6.4580    1.3898    6.4580  _C2    1             0.000000
    203  _C2        6.4580    1.3898   19.3740  _C2    1             0.000000
    204  _C2       19.3740    1.3898   19.3740  _C2    1             0.000000
    205  _C2       19.3740   24.4422   19.3740  _C2    1             0.000000
    206  _C2        6.4580   24.4422   19.3740  _C2    1             0.000000
    207  _C2        6.4580   24.4422    6.4580  _C2    1             0.000000
    208  _C2       19.3740   24.4422    6.4580  _C2    1             0.000000
    209  _C2        6.4580   19.3740   14.3058  _C2    1             0.000000
    210  _C2       19.3740   19.3740   14.3058  _C2    1             0.000000
    211  _C2       19.3740    6.4580   14.3058  _C2    1             0.000000
    212  _C2        6.4580    6.4580   14.3058  _C2    1             0.000000
    213  _C2        6.4580    6.4580   11.5262  _C2    1             0.000000
    214  _C2       19.3740    6.4580   11.5262  _C2    1             0.000000
    215  _C2       19.3740   19.3740   11.5262  _C2    1             0.000000
    216  _C2        6.4580   19.3740   11.5262  _C2    1             0.000000
    217  _C2       19.3740   14.3058   19.3740  _C2    1             0.000000
    218  _C2        6.4580   14.3058   19.3740  _C2    1             0.000000
    219  _C2        6.4580   14.3058    6.4580  _C2    1             0.000000
    220  _C2       19.3740   14.3058    6.4580  _C2    1             0.000000
    221  _C2       19.3740   11.5262    6.4580  _C2    1             0.000000
    222  _C2        6.4580   11.5262    6.4580  _C2    1             0.000000
    223  _C2        6.4580   11.5262   19.3740  _C2    1             0.000000
    224  _C2       19.3740   11.5262   19.3740  _C2    1             0.000000
    225  _C2       14.3058    6.4580   19.3740  _C2    1             0.000000
    226  _C2       14.3058   19.3740   19.3740  _C2    1             0.000000
    227  _C2       14.3058   19.3740    6.4580  _C2    1             0.000000
    228  _C2       14.3058    6.4580    6.4580  _C2    1             0.000000
    229  _C2       11.5262    6.4580    6.4580  _C2    1             0.000000
    230  _C2       11.5262   19.3740    6.4580  _C2    1             0.000000
    231  _C2       11.5262   19.3740   19.3740  _C2    1             0.000000
    232  _C2       11.5262    6.4580   19.3740  _C2    1             0.000000
    233  _C3        7.3079    5.6081    0.6949  _C3    1             0.000000
    234  _C3       20.2239    7.3079    0.6949  _C3    1             0.000000
    235  _C3       18.5241   20.2239    0.6949  _C3    1             0.000000
    236  _C3        5.6081   18.5241    0.6949  _C3    1             0.000000
    237  _C3        7.3079   20.2239   25.1371  _C3    1             0.000000
    238  _C3       20.2239   18.5241   25.1371  _C3    1             0.000000
    239  _C3       18.5241    5.6081   25.1371  _C3    1             0.000000
    240  _C3        5.6081    7.3079   25.1371  _C3    1             0.000000
    241  _C3        0.6949    7.3079    5.6081  _C3    1             0.000000
    242  _C3        0.6949   20.2239    7.3079  _C3    1             0.000000
    243  _C3        0.6949   18.5241   20.2239  _C3    1             0.000000
    244  _C3        0.6949    5.6081   18.5241  _C3    1             0.000000
    245  _C3       25.1371    7.3079   20.2239  _C3    1             0.000000
    246  _C3       25.1371   20.2239   18.5241  _C3    1             0.000000
    247  _C3       25.1371   18.5241    5.6081  _C3    1             0.000000
    248  _C3       25.1371    5.6081    7.3079  _C3    1             0.000000
    249  _C3       18.5241    0.6949    5.6081  _C3    1             0.000000
    250  _C3        5.6081    0.6949    7.3079  _C3    1             0.000000
    251  _C3        7.3079    0.6949   20.2239  _C3    1             0.000000
    252  _C3       20.2239    0.6949   18.5241  _C3    1             0.000000
    253  _C3       18.5241   25.1371   20.2239  _C3    1             0.000000
    254  _C3        5.6081   25.1371   18.5241  _C3    1             0.000000
    255  _C3        7.3079   25.1371    5.6081  _C3    1             0.000000
    256  _C3       20.2239   25.1371    7.3079  _C3    1             0.000000
    257  _C3       18.5241   20.2239   25.1371  _C3    1             0.000000
    258  _C3        5.6081   18.5241   25.1371  _C3    1             0.000000
    259  _C3        7.3079    5.6081   25.1371  _C3    1             0.000000
    260  _C3       20.2239    7.3079   25.1371  _C3    1             0.000000
    261  _C3       18.5241    5.6081    0.6949  _C3    1             0.000000
    262  _C3        5.6081    7.3079    0.6949  _C3    1             0.000000
    263  _C3        7.3079   20.2239    0.6949  _C3    1             0.000000
    264  _C3       20.2239   18.5241    0.6949  _C3    1             0.000000
    265  _C3       25.1371   18.5241   20.2239  _C3    1             0.000000
    266  _C3       25.1371    5.6081   18.5241  _C3    1             0.000000
    267  _C3       25.1371    7.3079    5.6081  _C3    1             0.000000
    268  _C3       25.1371   20.2239    7.3079  _C3    1             0.000000
    269  _C3        0.6949   18.5241    5.6081  _C3    1             0.000000
    270  _C3        0.6949    5.6081    7.3079  _C3    1             0.000000
    271  _C3        0.6949    7.3079   20.2239  _C3    1             0.000000
    272  _C3        0.6949   20.2239   18.5241  _C3    1             0.000000
    273  _C3        7.3079   25.1371   20.2239  _C3    1             0.000000
    274  _C3       20.2239   25.1371   18.5241  _C3    1             0.000000
    275  _C3       18.5241   25.1371    5.6081  _C3    1             0.000000
    276  _C3        5.6081   25.1371    7.3079  _C3    1             0.000000
    277  _C3        7.3079    0.6949    5.6081  _C3    1             0.000000
    278  _C3       20.2239    0.6949    7.3079  _C3    1             0.000000
    279  _C3       18.5241    0.6949   20.2239  _C3    1             0.000000
    280  _C3        5.6081    0.6949   18.5241  _C3    1             0.000000
    281  _C3        7.3079   18.5241   13.6109  _C3    1             0.000000
    282  _C3       20.2239   20.2239   13.6109  _C3    1             0.000000
    283  _C3       18.5241    7.3079   13.6109  _C3    1             0.000000
    284  _C3        5.6081    5.6081   13.6109  _C3    1             0.000000
    285  _C3        7.3079    7.3079   12.2211  _C3    1             0.000000
    286  _C3       20.2239    5.6081   12.2211  _C3    1             0.000000
    287  _C3       18.5241   18.5241   12.2211  _C3    1             0.000000
    288  _C3        5.6081   20.2239   12.2211  _C3    1             0.000000
    289  _C3       18.5241   13.6109   18.5241  _C3    1             0.000000
    290  _C3        5.6081   13.6109   20.2239  _C3    1             0.000000
    291  _C3        7.3079   13.6109    7.3079  _C3    1             0.000000
    292  _C3       20.2239   13.6109    5.6081  _C3    1             0.000000
    293  _C3       18.5241   12.2211    7.3079  _C3    1             0.000000
    294  _C3        5.6081   12.2211    5.6081  _C3    1             0.000000
    295  _C3        7.3079   12.2211   18.5241  _C3    1             0.000000
    296  _C3       20.2239   12.2211   20.2239  _C3    1             0.000000
    297  _C3       18.5241    7.3079   12.2211  _C3    1             0.000000
    298  _C3        5.6081    5.6081   12.2211  _C3    1             0.000000
    299  _C3        7.3079   18.5241   12.2211  _C3    1             0.000000
    300  _C3       20.2239   20.2239   12.2211  _C3    1             0.000000
    301  _C3       18.5241   18.5241   13.6109  _C3    1             0.000000
    302  _C3        5.6081   20.2239   13.6109  _C3    1             0.000000
    303  _C3        7.3079    7.3079   13.6109  _C3    1             0.000000
    304  _C3       20.2239    5.6081   13.6109  _C3    1             0.000000
    305  _C3        7.3079   12.2211    7.3079  _C3    1             0.000000
    306  _C3       20.2239   12.2211    5.6081  _C3    1             0.000000
    307  _C3       18.5241   12.2211   18.5241  _C3    1             0.000000
    308  _C3        5.6081   12.2211   20.2239  _C3    1             0.000000
    309  _C3        7.3079   13.6109   18.5241  _C3    1             0.000000
    310  _C3       20.2239   13.6109   20.2239  _C3    1             0.000000
    311  _C3       18.5241   13.6109    7.3079  _C3    1             0.000000
    312  _C3        5.6081   13.6109    5.6081  _C3    1             0.000000
    313  _C3       13.6109    7.3079   18.5241  _C3    1             0.000000
    314  _C3       13.6109   20.2239   20.2239  _C3    1             0.000000
    315  _C3       13.6109   18.5241    7.3079  _C3    1             0.000000
    316  _C3       13.6109    5.6081    5.6081  _C3    1             0.000000
    317  _C3       12.2211    7.3079    7.3079  _C3    1             0.000000
    318  _C3       12.2211   20.2239    5.6081  _C3    1             0.000000
    319  _C3       12.2211   18.5241   18.5241  _C3    1             0.000000
    320  _C3       12.2211    5.6081   20.2239  _C3    1             0.000000
    321  _C3       12.2211   18.5241    7.3079  _C3    1             0.000000
    322  _C3       12.2211    5.6081    5.6081  _C3    1             0.000000
    323  _C3       12.2211    7.3079   18.5241  _C3    1             0.000000
    324  _C3       12.2211   20.2239   20.2239  _C3    1             0.000000
    325  _C3       13.6109   18.5241   18.5241  _C3    1             0.000000
    326  _C3       13.6109    5.6081   20.2239  _C3    1             0.000000
    327  _C3       13.6109    7.3079    7.3079  _C3    1             0.000000
    328  _C3       13.6109   20.2239    5.6081  _C3    1             0.000000
    329  _H1        7.8762    5.0398    1.1573  _H1    1             0.000000
    330  _H1       20.7922    7.8762    1.1573  _H1    1             0.000000
    331  _H1       17.9558   20.7922    1.1573  _H1    1             0.000000
    332  _H1        5.0398   17.9558    1.1573  _H1    1             0.000000
    333  _H1        7.8762   20.7922   24.6747  _H1    1             0.000000
    334  _H1       20.7922   17.9558   24.6747  _H1    1             0.000000
    335  _H1       17.9558    5.0398   24.6747  _H1    1             0.000000
    336  _H1        5.0398    7.8762   24.6747  _H1    1             0.000000
    337  _H1        1.1573    7.8762    5.0398  _H1    1             0.000000
    338  _H1        1.1573   20.7922    7.8762  _H1    1             0.000000
    339  _H1        1.1573   17.9558   20.7922  _H1    1             0.000000
    340  _H1        1.1573    5.0398   17.9558  _H1    1             0.000000
    341  _H1       24.6747    7.8762   20.7922  _H1    1             0.000000
    342  _H1       24.6747   20.7922   17.9558  _H1    1             0.000000
    343  _H1       24.6747   17.9558    5.0398  _H1    1             0.000000
    344  _H1       24.6747    5.0398    7.8762  _H1    1             0.000000
    345  _H1       17.9558    1.1573    5.0398  _H1    1             0.000000
    346  _H1        5.0398    1.1573    7.8762  _H1    1             0.000000
    347  _H1        7.8762    1.1573   20.7922  _H1    1             0.000000
    348  _H1       20.7922    1.1573   17.9558  _H1    1             0.000000
    349  _H1       17.9558   24.6747   20.7922  _H1    1             0.000000
    350  _H1        5.0398   24.6747   17.9558  _H1    1             0.000000
    351  _H1        7.8762   24.6747    5.0398  _H1    1             0.000000
    352  _H1       20.7922   24.6747    7.8762  _H1    1             0.000000
    353  _H1       17.9558   20.7922   24.6747  _H1    1             0.000000
    354  _H1        5.0398   17.9558   24.6747  _H1    1             0.000000
    355  _H1        7.8762    5.0398   24.6747  _H1    1             0.000000
    356  _H1       20.7922    7.8762   24.6747  _H1    1             0.000000
    357  _H1       17.9558    5.0398    1.1573  _H1    1             0.000000
    358  _H1        5.0398    7.8762    1.1573  _H1    1             0.000000
    359  _H1        7.8762   20.7922    1.1573  _H1    1             0.000000
    360  _H1       20.7922   17.9558    1.1573  _H1    1             0.000000
    361  _H1       24.6747   17.9558   20.7922  _H1    1             0.000000
    362  _H1       24.6747    5.0398   17.9558  _H1    1             0.000000
    363  _H1       24.6747    7.8762    5.0398  _H1    1             0.000000
    364  _H1       24.6747   20.7922    7.8762  _H1    1             0.000000
    365  _H1        1.1573   17.9558    5.0398  _H1    1             0.000000
    366  _H1        1.1573    5.0398    7.8762  _H1    1             0.000000
    367  _H1        1.1573    7.8762   20.7922  _H1    1             0.000000
    368  _H1        1.1573   20.7922   17.9558  _H1    1             0.000000
    369  _H1        7.8762   24.6747   20.7922  _H1    1             0.000000
    370  _H1       20.7922   24.6747   17.9558  _H1    1             0.000000
    371  _H1       17.9558   24.6747    5.0398  _H1    1             0.000000
    372  _H1        5.0398   24.6747    7.8762  _H1    1             0.000000
    373  _H1        7.8762    1.1573    5.0398  _H1    1             0.000000
    374  _H1       20.7922    1.1573    7.8762  _H1    1             0.000000
    375  _H1       17.9558    1.1573   20.7922  _H1    1             0.000000
    376  _H1        5.0398    1.1573   17.9558  _H1    1             0.000000
    377  _H1        7.8762   17.9558   14.0733  _H1    1             0.000000
    378  _H1       20.7922   20.7922   14.0733  _H1    1             0.000000
    379  _H1       17.9558    7.8762   14.0733  _H1    1             0.000000
    380  _H1        5.0398    5.0398   14.0733  _H1    1             0.000000
    381  _H1        7.8762    7.8762   11.7587  _H1    1             0.000000
    382  _H1       20.7922    5.0398   11.7587  _H1    1             0.000000
    383  _H1       17.9558   17.9558   11.7587  _H1    1             0.000000
    384  _H1        5.0398   20.7922   11.7587  _H1    1             0.000000
    385  _H1       17.9558   14.0733   17.9558  _H1    1             0.000000
    386  _H1        5.0398   14.0733   20.7922  _H1    1             0.000000
    387  _H1        7.8762   14.0733    7.8762  _H1    1             0.000000
    388  _H1       20.7922   14.0733    5.0398  _H1    1             0.000000
    389  _H1       17.9558   11.7587    7.8762  _H1    1             0.000000
    390  _H1        5.0398   11.7587    5.0398  _H1    1             0.000000
    391  _H1        7.8762   11.7587   17.9558  _H1    1             0.000000
    392  _H1       20.7922   11.7587   20.7922  _H1    1             0.000000
    393  _H1       17.9558    7.8762   11.7587  _H1    1             0.000000
    394  _H1        5.0398    5.0398   11.7587  _H1    1             0.000000
    395  _H1        7.8762   17.9558   11.7587  _H1    1             0.000000
    396  _H1       20.7922   20.7922   11.7587  _H1    1             0.000000
    397  _H1       17.9558   17.9558   14.0733  _H1    1             0.000000
    398  _H1        5.0398   20.7922   14.0733  _H1    1             0.000000
    399  _H1        7.8762    7.8762   14.0733  _H1    1             0.000000
    400  _H1       20.7922    5.0398   14.0733  _H1    1             0.000000
    401  _H1        7.8762   11.7587    7.8762  _H1    1             0.000000
    402  _H1       20.7922   11.7587    5.0398  _H1    1             0.000000
    403  _H1       17.9558   11.7587   17.9558  _H1    1             0.000000
    404  _H1        5.0398   11.7587   20.7922  _H1    1             0.000000
    405  _H1        7.8762   14.0733   17.9558  _H1    1             0.000000
    406  _H1       20.7922   14.0733   20.7922  _H1    1             0.000000
    407  _H1       17.9558   14.0733    7.8762  _H1    1             0.000000
    408  _H1        5.0398   14.0733    5.0398  _H1    1             0.000000
    409  _H1       14.0733    7.8762   17.9558  _H1    1             0.000000
    410  _H1       14.0733   20.7922   20.7922  _H1    1             0.000000
    411  _H1       14.0733   17.9558    7.8762  _H1    1             0.000000
    412  _H1       14.0733    5.0398    5.0398  _H1    1             0.000000
    413  _H1       11.7587    7.8762    7.8762  _H1    1             0.000000
    414  _H1       11.7587   20.7922    5.0398  _H1    1             0.000000
    415  _H1       11.7587   17.9558   17.9558  _H1    1             0.000000
    416  _H1       11.7587    5.0398   20.7922  _H1    1             0.000000
    417  _H1       11.7587   17.9558    7.8762  _H1    1             0.000000
    418  _H1       11.7587    5.0398    5.0398  _H1    1             0.000000
    419  _H1       11.7587    7.8762   17.9558  _H1    1             0.000000
    420  _H1       11.7587   20.7922   20.7922  _H1    1             0.000000
    421  _H1       14.0733   17.9558   17.9558  _H1    1             0.000000
    422  _H1       14.0733    5.0398   20.7922  _H1    1             0.000000
    423  _H1       14.0733    7.8762    7.8762  _H1    1             0.000000
    424  _H1       14.0733   20.7922    5.0398  _H1    1             0.000000
@<TRIPOS>BOND
    1    41   137  1
    2    42   138  1
    3    43   139  1
    4    44   140  1
    5    45   141  1
    6    46   142  1
    7    47   143  1
    8    48   144  1
    9    49   145  1
   10    50   146  1
   11    51   147  1
   12    52   148  1
   13    53   149  1
   14    54   150  1
   15    55   151  1
   16    56   152  1
   17    57   153  1
   18    58   154  1
   19    59   155  1
   20    60   156  1
   21    61   157  1
   22    62   158  1
   23    63   159  1
   24    64   160  1
   25    65   142  1
   26    66   141  1
   27    67   144  1
   28    68   143  1
   29    69   138  1
   30    70   137  1
   31    71   140  1
   32    72   139  1
   33    73   150  1
   34    74   149  1
   35    75   152  1
   36    76   151  1
   37    77   146  1
   38    78   145  1
   39    79   148  1
   40    80   147  1
   41    81   158  1
   42    82   157  1
   43    83   160  1
   44    84   159  1
   45    85   154  1
   46    86   153  1
   47    87   156  1
   48    88   155  1
   49    89   161  1
   50    90   162  1
   51    91   163  1
   52    92   164  1
   53    93   165  1
   54    94   166  1
   55    95   167  1
   56    96   168  1
   57    97   169  1
   58    98   170  1
   59    99   171  1
   60   100   172  1
   61   101   173  1
   62   102   174  1
   63   103   175  1
   64   104   176  1
   65   105   166  1
   66   106   165  1
   67   107   168  1
   68   108   167  1
   69   109   162  1
   70   110   161  1
   71   111   164  1
   72   112   163  1
   73   113   174  1
   74   114   173  1
   75   115   176  1
   76   116   175  1
   77   117   170  1
   78   118   169  1
   79   119   172  1
   80   120   171  1
   81   121   177  1
   82   122   178  1
   83   123   179  1
   84   124   180  1
   85   125   181  1
   86   126   182  1
   87   127   183  1
   88   128   184  1
   89   129   182  1
   90   130   181  1
   91   131   184  1
   92   132   183  1
   93   133   178  1
   94   134   177  1
   95   135   180  1
   96   136   179  1
   97   137   185  1
   98   138   186  1
   99   139   187  1
  100   140   188  1
  101   141   189  1
  102   142   190  1
  103   143   191  1
  104   144   192  1
  105   145   193  1
  106   146   194  1
  107   147   195  1
  108   148   196  1
  109   149   197  1
  110   150   198  1
  111   151   199  1
  112   152   200  1
  113   153   201  1
  114   154   202  1
  115   155   203  1
  116   156   204  1
  117   157   205  1
  118   158   206  1
  119   159   207  1
  120   160   208  1
  121   161   209  1
  122   162   210  1
  123   163   211  1
  124   164   212  1
  125   165   213  1
  126   166   214  1
  127   167   215  1
  128   168   216  1
  129   169   217  1
  130   170   218  1
  131   171   219  1
  132   172   220  1
  133   173   221  1
  134   174   222  1
  135   175   223  1
  136   176   224  1
  137   177   225  1
  138   178   226  1
  139   179   227  1
  140   180   228  1
  141   181   229  1
  142   182   230  1
  143   183   231  1
  144   184   232  1
  145   185   262  1
  146   185   233  1
  147   186   234  1
  148   186   261  1
  149   187   235  1
  150   187   264  1
  151   188   263  1
  152   188   236  1
  153   189   237  1
  154   189   258  1
  155   190   257  1
  156   190   238  1
  157   191   260  1
  158   191   239  1
  159   192   240  1
  160   192   259  1
  161   193   270  1
  162   193   241  1
  163   194   242  1
  164   194   269  1
  165   195   243  1
  166   195   272  1
  167   196   271  1
  168   196   244  1
  169   197   245  1
  170   197   266  1
  171   198   265  1
  172   198   246  1
  173   199   268  1
  174   199   247  1
  175   200   248  1
  176   200   267  1
  177   201   278  1
  178   201   249  1
  179   202   250  1
  180   202   277  1
  181   203   251  1
  182   203   280  1
  183   204   279  1
  184   204   252  1
  185   205   253  1
  186   205   274  1
  187   206   273  1
  188   206   254  1
  189   207   276  1
  190   207   255  1
  191   208   256  1
  192   208   275  1
  193   209   302  1
  194   209   281  1
  195   210   282  1
  196   210   301  1
  197   211   283  1
  198   211   304  1
  199   212   303  1
  200   212   284  1
  201   213   285  1
  202   213   298  1
  203   214   297  1
  204   214   286  1
  205   215   300  1
  206   215   287  1
  207   216   288  1
  208   216   299  1
  209   217   310  1
  210   217   289  1
  211   218   290  1
  212   218   309  1
  213   219   291  1
  214   219   312  1
  215   220   311  1
  216   220   292  1
  217   221   293  1
  218   221   306  1
  219   222   305  1
  220   222   294  1
  221   223   308  1
  222   223   295  1
  223   224   296  1
  224   224   307  1
  225   225   326  1
  226   225   313  1
  227   226   314  1
  228   226   325  1
  229   227   315  1
  230   227   328  1
  231   228   327  1
  232   228   316  1
  233   229   317  1
  234   229   322  1
  235   230   321  1
  236   230   318  1
  237   231   324  1
  238   231   319  1
  239   232   320  1
  240   232   323  1
  241   233   329  1
  242   233   259  1
  243   234   330  1
  244   234   260  1
  245   235   331  1
  246   235   257  1
  247   236   332  1
  248   236   258  1
  249   237   333  1
  250   237   263  1
  251   238   334  1
  252   238   264  1
  253   239   335  1
  254   239   261  1
  255   240   336  1
  256   240   262  1
  257   241   337  1
  258   241   267  1
  259   242   338  1
  260   242   268  1
  261   243   339  1
  262   243   265  1
  263   244   340  1
  264   244   266  1
  265   245   341  1
  266   245   271  1
  267   246   342  1
  268   246   272  1
  269   247   343  1
  270   247   269  1
  271   248   344  1
  272   248   270  1
  273   249   345  1
  274   249   275  1
  275   250   346  1
  276   250   276  1
  277   251   347  1
  278   251   273  1
  279   252   348  1
  280   252   274  1
  281   253   349  1
  282   253   279  1
  283   254   350  1
  284   254   280  1
  285   255   351  1
  286   255   277  1
  287   256   352  1
  288   256   278  1
  289   257   353  1
  290   258   354  1
  291   259   355  1
  292   260   356  1
  293   261   357  1
  294   262   358  1
  295   263   359  1
  296   264   360  1
  297   265   361  1
  298   266   362  1
  299   267   363  1
  300   268   364  1
  301   269   365  1
  302   270   366  1
  303   271   367  1
  304   272   368  1
  305   273   369  1
  306   274   370  1
  307   275   371  1
  308   276   372  1
  309   277   373  1
  310   278   374  1
  311   279   375  1
  312   280   376  1
  313   281   377  1
  314   281   299  1
  315   282   378  1
  316   282   300  1
  317   283   379  1
  318   283   297  1
  319   284   380  1
  320   284   298  1
  321   285   381  1
  322   285   303  1
  323   286   382  1
  324   286   304  1
  325   287   383  1
  326   287   301  1
  327   288   384  1
  328   288   302  1
  329   289   385  1
  330   289   307  1
  331   290   386  1
  332   290   308  1
  333   291   387  1
  334   291   305  1
  335   292   388  1
  336   292   306  1
  337   293   389  1
  338   293   311  1
  339   294   390  1
  340   294   312  1
  341   295   391  1
  342   295   309  1
  343   296   392  1
  344   296   310  1
  345   297   393  1
  346   298   394  1
  347   299   395  1
  348   300   396  1
  349   301   397  1
  350   302   398  1
  351   303   399  1
  352   304   400  1
  353   305   401  1
  354   306   402  1
  355   307   403  1
  356   308   404  1
  357   309   405  1
  358   310   406  1
  359   311   407  1
  360   312   408  1
  361   313   409  1
  362   313   323  1
  363   314   410  1
  364   314   324  1
  365   315   411  1
  366   315   321  1
  367   316   412  1
  368   316   322  1
  369   317   413  1
  370   317   327  1
  371   318   414  1
  372   318   328  1
  373   319   415  1
  374   319   325  1
  375   320   416  1
  376   320   326  1
  377   321   417  1
  378   322   418  1
  379   323   419  1
  380   324   420  1
  381   325   421  1
  382   326   422  1
  383   327   423  1
  384   328   424  1

@<TRIPOS>SUBSTRUCTURE
1 ****        1 TEMP                        0 ****  **** 0 ROOT
