data_IRMOF-1
_symmetry_space_group_name_H-M    'P 1'
_symmetry_Int_Tables_number       1
_cell_length_a                    51.66400
_cell_length_b                    51.66400
_cell_length_c                    51.66400
_cell_angle_alpha                 90.0
_cell_angle_beta                  90.0
_cell_angle_gamma                 90.0

loop_
_atom_site_label
_atom_site_type_symbol
_atom_site_fract_x
_atom_site_fract_y
_atom_site_fract_z
Zn_a Zn_a 0.14672 0.10336 0.10336
Zn_a Zn_a 0.39679 0.14672 0.10336
Zn_a Zn_a 0.35324 0.39679 0.10336
Zn_a Zn_a 0.10336 0.35324 0.10336
Zn_a Zn_a 0.14672 0.39679 0.39679
Zn_a Zn_a 0.39679 0.35324 0.39679
Zn_a Zn_a 0.35324 0.10336 0.39679
Zn_a Zn_a 0.10336 0.14672 0.39679
Zn_a Zn_a 0.10336 0.14672 0.10336
Zn_a Zn_a 0.10336 0.39679 0.14672
Zn_a Zn_a 0.10336 0.35324 0.39679
Zn_a Zn_a 0.10336 0.10336 0.35324
Zn_a Zn_a 0.39679 0.14672 0.39679
Zn_a Zn_a 0.39679 0.39679 0.35324
Zn_a Zn_a 0.39679 0.35324 0.10336
Zn_a Zn_a 0.39679 0.10336 0.14672
Zn_a Zn_a 0.35324 0.10336 0.10336
Zn_a Zn_a 0.10336 0.10336 0.14672
Zn_a Zn_a 0.14672 0.10336 0.39679
Zn_a Zn_a 0.39679 0.10336 0.35324
Zn_a Zn_a 0.35324 0.39679 0.39679
Zn_a Zn_a 0.10336 0.39679 0.35324
Zn_a Zn_a 0.14672 0.39679 0.10336
Zn_a Zn_a 0.39679 0.39679 0.14672
Zn_a Zn_a 0.14672 0.35324 0.35324
Zn_a Zn_a 0.35324 0.14672 0.35324
Zn_a Zn_a 0.14672 0.14672 0.14672
Zn_a Zn_a 0.35324 0.35324 0.14672
Zn_a Zn_a 0.35324 0.35324 0.35324
Zn_a Zn_a 0.14672 0.35324 0.14672
Zn_a Zn_a 0.35324 0.14672 0.14672
Zn_a Zn_a 0.14672 0.14672 0.35324
O_a O_a 0.12504 0.12504 0.12504
O_a O_a 0.37492 0.12504 0.12504
O_a O_a 0.37492 0.37492 0.12504
O_a O_a 0.12504 0.37492 0.12504
O_a O_a 0.12504 0.37492 0.37492
O_a O_a 0.37492 0.37492 0.37492
O_a O_a 0.37492 0.12504 0.37492
O_a O_a 0.12504 0.12504 0.37492
O_b O_b 0.14091 0.10897 0.06697
O_b O_b 0.39099 0.14091 0.06697
O_b O_b 0.35905 0.39099 0.06697
O_b O_b 0.10897 0.35905 0.06697
O_b O_b 0.14091 0.39099 0.43299
O_b O_b 0.39099 0.35905 0.43299
O_b O_b 0.35905 0.10897 0.43299
O_b O_b 0.10897 0.14091 0.43299
O_b O_b 0.06697 0.14091 0.10897
O_b O_b 0.06697 0.39099 0.14091
O_b O_b 0.06697 0.35905 0.39099
O_b O_b 0.06697 0.10897 0.35905
O_b O_b 0.43299 0.14091 0.39099
O_b O_b 0.43299 0.39099 0.35905
O_b O_b 0.43299 0.35905 0.10897
O_b O_b 0.43299 0.10897 0.14091
O_b O_b 0.35905 0.06697 0.10897
O_b O_b 0.10897 0.06697 0.14091
O_b O_b 0.14091 0.06697 0.39099
O_b O_b 0.39099 0.06697 0.35905
O_b O_b 0.35905 0.43299 0.39099
O_b O_b 0.10897 0.43299 0.35905
O_b O_b 0.14091 0.43299 0.10897
O_b O_b 0.39099 0.43299 0.14091
O_b O_b 0.35905 0.39099 0.43299
O_b O_b 0.10897 0.35905 0.43299
O_b O_b 0.14091 0.10897 0.43299
O_b O_b 0.39099 0.14091 0.43299
O_b O_b 0.35905 0.10897 0.06697
O_b O_b 0.10897 0.14091 0.06697
O_b O_b 0.14091 0.39099 0.06697
O_b O_b 0.39099 0.35905 0.06697
O_b O_b 0.43299 0.35905 0.39099
O_b O_b 0.43299 0.10897 0.35905
O_b O_b 0.43299 0.14091 0.10897
O_b O_b 0.43299 0.39099 0.14091
O_b O_b 0.06697 0.35905 0.10897
O_b O_b 0.06697 0.10897 0.14091
O_b O_b 0.06697 0.14091 0.39099
O_b O_b 0.06697 0.39099 0.35905
O_b O_b 0.14091 0.43299 0.39099
O_b O_b 0.39099 0.43299 0.35905
O_b O_b 0.35905 0.43299 0.10897
O_b O_b 0.10897 0.43299 0.14091
O_b O_b 0.14091 0.06697 0.10897
O_b O_b 0.39099 0.06697 0.14091
O_b O_b 0.35905 0.06697 0.39099
O_b O_b 0.10897 0.06697 0.35905
O_b O_b 0.14091 0.35905 0.31705
O_b O_b 0.39099 0.39099 0.31705
O_b O_b 0.35905 0.14091 0.31705
O_b O_b 0.10897 0.10897 0.31705
O_b O_b 0.14091 0.14091 0.18291
O_b O_b 0.39099 0.10897 0.18291
O_b O_b 0.35905 0.35905 0.18291
O_b O_b 0.10897 0.39099 0.18291
O_b O_b 0.35905 0.31705 0.35905
O_b O_b 0.10897 0.31705 0.39099
O_b O_b 0.14091 0.31705 0.14091
O_b O_b 0.39099 0.31705 0.10897
O_b O_b 0.35905 0.18291 0.14091
O_b O_b 0.10897 0.18291 0.10897
O_b O_b 0.14091 0.18291 0.35905
O_b O_b 0.39099 0.18291 0.39099
O_b O_b 0.35905 0.14091 0.18291
O_b O_b 0.10897 0.10897 0.18291
O_b O_b 0.14091 0.35905 0.18291
O_b O_b 0.39099 0.39099 0.18291
O_b O_b 0.35905 0.35905 0.31705
O_b O_b 0.10897 0.39099 0.31705
O_b O_b 0.14091 0.14091 0.31705
O_b O_b 0.39099 0.10897 0.31705
O_b O_b 0.14091 0.18291 0.14091
O_b O_b 0.39099 0.18291 0.10897
O_b O_b 0.35905 0.18291 0.35905
O_b O_b 0.10897 0.18291 0.39099
O_b O_b 0.14091 0.31705 0.35905
O_b O_b 0.39099 0.31705 0.39099
O_b O_b 0.35905 0.31705 0.14091
O_b O_b 0.10897 0.31705 0.10897
O_b O_b 0.31705 0.14091 0.35905
O_b O_b 0.31705 0.39099 0.39099
O_b O_b 0.31705 0.35905 0.14091
O_b O_b 0.31705 0.10897 0.10897
O_b O_b 0.18291 0.14091 0.14091
O_b O_b 0.18291 0.39099 0.10897
O_b O_b 0.18291 0.35905 0.35905
O_b O_b 0.18291 0.10897 0.39099
O_b O_b 0.18291 0.35905 0.14091
O_b O_b 0.18291 0.10897 0.10897
O_b O_b 0.18291 0.14091 0.35905
O_b O_b 0.18291 0.39099 0.39099
O_b O_b 0.31705 0.35905 0.35905
O_b O_b 0.31705 0.10897 0.39099
O_b O_b 0.31705 0.14091 0.14091
O_b O_b 0.31705 0.39099 0.10897
C_a C_a 0.12504 0.12504 0.05574
C_a C_a 0.37492 0.12504 0.05574
C_a C_a 0.37492 0.37492 0.05574
C_a C_a 0.12504 0.37492 0.05574
C_a C_a 0.12504 0.37492 0.44441
C_a C_a 0.37492 0.37492 0.44441
C_a C_a 0.37492 0.12504 0.44441
C_a C_a 0.12504 0.12504 0.44441
C_a C_a 0.05574 0.12504 0.12504
C_a C_a 0.05574 0.37492 0.12504
C_a C_a 0.05574 0.37492 0.37492
C_a C_a 0.05574 0.12504 0.37492
C_a C_a 0.44441 0.12504 0.37492
C_a C_a 0.44441 0.37492 0.37492
C_a C_a 0.44441 0.37492 0.12504
C_a C_a 0.44441 0.12504 0.12504
C_a C_a 0.37492 0.05574 0.12504
C_a C_a 0.12504 0.05574 0.12504
C_a C_a 0.12504 0.05574 0.37492
C_a C_a 0.37492 0.05574 0.37492
C_a C_a 0.37492 0.44441 0.37492
C_a C_a 0.12504 0.44441 0.37492
C_a C_a 0.12504 0.44441 0.12504
C_a C_a 0.37492 0.44441 0.12504
C_a C_a 0.12504 0.37492 0.30563
C_a C_a 0.37492 0.37492 0.30563
C_a C_a 0.37492 0.12504 0.30563
C_a C_a 0.12504 0.12504 0.30563
C_a C_a 0.12504 0.12504 0.19433
C_a C_a 0.37492 0.12504 0.19433
C_a C_a 0.37492 0.37492 0.19433
C_a C_a 0.12504 0.37492 0.19433
C_a C_a 0.37492 0.30563 0.37492
C_a C_a 0.12504 0.30563 0.37492
C_a C_a 0.12504 0.30563 0.12504
C_a C_a 0.37492 0.30563 0.12504
C_a C_a 0.37492 0.19433 0.12504
C_a C_a 0.12504 0.19433 0.12504
C_a C_a 0.12504 0.19433 0.37492
C_a C_a 0.37492 0.19433 0.37492
C_a C_a 0.30563 0.12504 0.37492
C_a C_a 0.30563 0.37492 0.37492
C_a C_a 0.30563 0.37492 0.12504
C_a C_a 0.30563 0.12504 0.12504
C_a C_a 0.19433 0.12504 0.12504
C_a C_a 0.19433 0.37492 0.12504
C_a C_a 0.19433 0.37492 0.37492
C_a C_a 0.19433 0.12504 0.37492
C_b C_b 0.12504 0.12504 0.02690
C_b C_b 0.37492 0.12504 0.02690
C_b C_b 0.37492 0.37492 0.02690
C_b C_b 0.12504 0.37492 0.02690
C_b C_b 0.12504 0.37492 0.47306
C_b C_b 0.37492 0.37492 0.47306
C_b C_b 0.37492 0.12504 0.47306
C_b C_b 0.12504 0.12504 0.47306
C_b C_b 0.02690 0.12504 0.12504
C_b C_b 0.02690 0.37492 0.12504
C_b C_b 0.02690 0.37492 0.37492
C_b C_b 0.02690 0.12504 0.37492
C_b C_b 0.47306 0.12504 0.37492
C_b C_b 0.47306 0.37492 0.37492
C_b C_b 0.47306 0.37492 0.12504
C_b C_b 0.47306 0.12504 0.12504
C_b C_b 0.37492 0.02690 0.12504
C_b C_b 0.12504 0.02690 0.12504
C_b C_b 0.12504 0.02690 0.37492
C_b C_b 0.37492 0.02690 0.37492
C_b C_b 0.37492 0.47306 0.37492
C_b C_b 0.12504 0.47306 0.37492
C_b C_b 0.12504 0.47306 0.12504
C_b C_b 0.37492 0.47306 0.12504
C_b C_b 0.12504 0.37492 0.27698
C_b C_b 0.37492 0.37492 0.27698
C_b C_b 0.37492 0.12504 0.27698
C_b C_b 0.12504 0.12504 0.27698
C_b C_b 0.12504 0.12504 0.22317
C_b C_b 0.37492 0.12504 0.22317
C_b C_b 0.37492 0.37492 0.22317
C_b C_b 0.12504 0.37492 0.22317
C_b C_b 0.37492 0.27698 0.37492
C_b C_b 0.12504 0.27698 0.37492
C_b C_b 0.12504 0.27698 0.12504
C_b C_b 0.37492 0.27698 0.12504
C_b C_b 0.37492 0.22317 0.12504
C_b C_b 0.12504 0.22317 0.12504
C_b C_b 0.12504 0.22317 0.37492
C_b C_b 0.37492 0.22317 0.37492
C_b C_b 0.27698 0.12504 0.37492
C_b C_b 0.27698 0.37492 0.37492
C_b C_b 0.27698 0.37492 0.12504
C_b C_b 0.27698 0.12504 0.12504
C_b C_b 0.22317 0.12504 0.12504
C_b C_b 0.22317 0.37492 0.12504
C_b C_b 0.22317 0.37492 0.37492
C_b C_b 0.22317 0.12504 0.37492
C_c C_c 0.14149 0.10859 0.01336
C_c C_c 0.39138 0.14149 0.01336
C_c C_c 0.35847 0.39138 0.01336
C_c C_c 0.10859 0.35847 0.01336
C_c C_c 0.14149 0.39138 0.48661
C_c C_c 0.39138 0.35847 0.48661
C_c C_c 0.35847 0.10859 0.48661
C_c C_c 0.10859 0.14149 0.48661
C_c C_c 0.01336 0.14149 0.10859
C_c C_c 0.01336 0.39138 0.14149
C_c C_c 0.01336 0.35847 0.39138
C_c C_c 0.01336 0.10859 0.35847
C_c C_c 0.48661 0.14149 0.39138
C_c C_c 0.48661 0.39138 0.35847
C_c C_c 0.48661 0.35847 0.10859
C_c C_c 0.48661 0.10859 0.14149
C_c C_c 0.35847 0.01336 0.10859
C_c C_c 0.10859 0.01336 0.14149
C_c C_c 0.14149 0.01336 0.39138
C_c C_c 0.39138 0.01336 0.35847
C_c C_c 0.35847 0.48661 0.39138
C_c C_c 0.10859 0.48661 0.35847
C_c C_c 0.14149 0.48661 0.10859
C_c C_c 0.39138 0.48661 0.14149
C_c C_c 0.35847 0.39138 0.48661
C_c C_c 0.10859 0.35847 0.48661
C_c C_c 0.14149 0.10859 0.48661
C_c C_c 0.39138 0.14149 0.48661
C_c C_c 0.35847 0.10859 0.01336
C_c C_c 0.10859 0.14149 0.01336
C_c C_c 0.14149 0.39138 0.01336
C_c C_c 0.39138 0.35847 0.01336
C_c C_c 0.48661 0.35847 0.39138
C_c C_c 0.48661 0.10859 0.35847
C_c C_c 0.48661 0.14149 0.10859
C_c C_c 0.48661 0.39138 0.14149
C_c C_c 0.01336 0.35847 0.10859
C_c C_c 0.01336 0.10859 0.14149
C_c C_c 0.01336 0.14149 0.39138
C_c C_c 0.01336 0.39138 0.35847
C_c C_c 0.14149 0.48661 0.39138
C_c C_c 0.39138 0.48661 0.35847
C_c C_c 0.35847 0.48661 0.10859
C_c C_c 0.10859 0.48661 0.14149
C_c C_c 0.14149 0.01336 0.10859
C_c C_c 0.39138 0.01336 0.14149
C_c C_c 0.35847 0.01336 0.39138
C_c C_c 0.10859 0.01336 0.35847
C_c C_c 0.14149 0.35847 0.26343
C_c C_c 0.39138 0.39138 0.26343
C_c C_c 0.35847 0.14149 0.26343
C_c C_c 0.10859 0.10859 0.26343
C_c C_c 0.14149 0.14149 0.23653
C_c C_c 0.39138 0.10859 0.23653
C_c C_c 0.35847 0.35847 0.23653
C_c C_c 0.10859 0.39138 0.23653
C_c C_c 0.35847 0.26343 0.35847
C_c C_c 0.10859 0.26343 0.39138
C_c C_c 0.14149 0.26343 0.14149
C_c C_c 0.39138 0.26343 0.10859
C_c C_c 0.35847 0.23653 0.14149
C_c C_c 0.10859 0.23653 0.10859
C_c C_c 0.14149 0.23653 0.35847
C_c C_c 0.39138 0.23653 0.39138
C_c C_c 0.35847 0.14149 0.23653
C_c C_c 0.10859 0.10859 0.23653
C_c C_c 0.14149 0.35847 0.23653
C_c C_c 0.39138 0.39138 0.23653
C_c C_c 0.35847 0.35847 0.26343
C_c C_c 0.10859 0.39138 0.26343
C_c C_c 0.14149 0.14149 0.26343
C_c C_c 0.39138 0.10859 0.26343
C_c C_c 0.14149 0.23653 0.14149
C_c C_c 0.39138 0.23653 0.10859
C_c C_c 0.35847 0.23653 0.35847
C_c C_c 0.10859 0.23653 0.39138
C_c C_c 0.14149 0.26343 0.35847
C_c C_c 0.39138 0.26343 0.39138
C_c C_c 0.35847 0.26343 0.14149
C_c C_c 0.10859 0.26343 0.10859
C_c C_c 0.26343 0.14149 0.35847
C_c C_c 0.26343 0.39138 0.39138
C_c C_c 0.26343 0.35847 0.14149
C_c C_c 0.26343 0.10859 0.10859
C_c C_c 0.23653 0.14149 0.14149
C_c C_c 0.23653 0.39138 0.10859
C_c C_c 0.23653 0.35847 0.35847
C_c C_c 0.23653 0.10859 0.39138
C_c C_c 0.23653 0.35847 0.14149
C_c C_c 0.23653 0.10859 0.10859
C_c C_c 0.23653 0.14149 0.35847
C_c C_c 0.23653 0.39138 0.39138
C_c C_c 0.26343 0.35847 0.35847
C_c C_c 0.26343 0.10859 0.39138
C_c C_c 0.26343 0.14149 0.14149
C_c C_c 0.26343 0.39138 0.10859
H_a H_a 0.15252 0.09755 0.02245
H_a H_a 0.40241 0.15252 0.02245
H_a H_a 0.34763 0.40241 0.02245
H_a H_a 0.09755 0.34763 0.02245
H_a H_a 0.15252 0.40241 0.47751
H_a H_a 0.40241 0.34763 0.47751
H_a H_a 0.34763 0.09755 0.47751
H_a H_a 0.09755 0.15252 0.47751
H_a H_a 0.02245 0.15252 0.09755
H_a H_a 0.02245 0.40241 0.15252
H_a H_a 0.02245 0.34763 0.40241
H_a H_a 0.02245 0.09755 0.34763
H_a H_a 0.47751 0.15252 0.40241
H_a H_a 0.47751 0.40241 0.34763
H_a H_a 0.47751 0.34763 0.09755
H_a H_a 0.47751 0.09755 0.15252
H_a H_a 0.34763 0.02245 0.09755
H_a H_a 0.09755 0.02245 0.15252
H_a H_a 0.15252 0.02245 0.40241
H_a H_a 0.40241 0.02245 0.34763
H_a H_a 0.34763 0.47751 0.40241
H_a H_a 0.09755 0.47751 0.34763
H_a H_a 0.15252 0.47751 0.09755
H_a H_a 0.40241 0.47751 0.15252
H_a H_a 0.34763 0.40241 0.47751
H_a H_a 0.09755 0.34763 0.47751
H_a H_a 0.15252 0.09755 0.47751
H_a H_a 0.40241 0.15252 0.47751
H_a H_a 0.34763 0.09755 0.02245
H_a H_a 0.09755 0.15252 0.02245
H_a H_a 0.15252 0.40241 0.02245
H_a H_a 0.40241 0.34763 0.02245
H_a H_a 0.47751 0.34763 0.40241
H_a H_a 0.47751 0.09755 0.34763
H_a H_a 0.47751 0.15252 0.09755
H_a H_a 0.47751 0.40241 0.15252
H_a H_a 0.02245 0.34763 0.09755
H_a H_a 0.02245 0.09755 0.15252
H_a H_a 0.02245 0.15252 0.40241
H_a H_a 0.02245 0.40241 0.34763
H_a H_a 0.15252 0.47751 0.40241
H_a H_a 0.40241 0.47751 0.34763
H_a H_a 0.34763 0.47751 0.09755
H_a H_a 0.09755 0.47751 0.15252
H_a H_a 0.15252 0.02245 0.09755
H_a H_a 0.40241 0.02245 0.15252
H_a H_a 0.34763 0.02245 0.40241
H_a H_a 0.09755 0.02245 0.34763
H_a H_a 0.15252 0.34763 0.27234
H_a H_a 0.40241 0.40241 0.27234
H_a H_a 0.34763 0.15252 0.27234
H_a H_a 0.09755 0.09755 0.27234
H_a H_a 0.15252 0.15252 0.22762
H_a H_a 0.40241 0.09755 0.22762
H_a H_a 0.34763 0.34763 0.22762
H_a H_a 0.09755 0.40241 0.22762
H_a H_a 0.34763 0.27234 0.34763
H_a H_a 0.09755 0.27234 0.40241
H_a H_a 0.15252 0.27234 0.15252
H_a H_a 0.40241 0.27234 0.09755
H_a H_a 0.34763 0.22762 0.15252
H_a H_a 0.09755 0.22762 0.09755
H_a H_a 0.15252 0.22762 0.34763
H_a H_a 0.40241 0.22762 0.40241
H_a H_a 0.34763 0.15252 0.22762
H_a H_a 0.09755 0.09755 0.22762
H_a H_a 0.15252 0.34763 0.22762
H_a H_a 0.40241 0.40241 0.22762
H_a H_a 0.34763 0.34763 0.27234
H_a H_a 0.09755 0.40241 0.27234
H_a H_a 0.15252 0.15252 0.27234
H_a H_a 0.40241 0.09755 0.27234
H_a H_a 0.15252 0.22762 0.15252
H_a H_a 0.40241 0.22762 0.09755
H_a H_a 0.34763 0.22762 0.34763
H_a H_a 0.09755 0.22762 0.40241
H_a H_a 0.15252 0.27234 0.34763
H_a H_a 0.40241 0.27234 0.40241
H_a H_a 0.34763 0.27234 0.15252
H_a H_a 0.09755 0.27234 0.09755
H_a H_a 0.27234 0.15252 0.34763
H_a H_a 0.27234 0.40241 0.40241
H_a H_a 0.27234 0.34763 0.15252
H_a H_a 0.27234 0.09755 0.09755
H_a H_a 0.22762 0.15252 0.15252
H_a H_a 0.22762 0.40241 0.09755
H_a H_a 0.22762 0.34763 0.34763
H_a H_a 0.22762 0.09755 0.40241
H_a H_a 0.22762 0.34763 0.15252
H_a H_a 0.22762 0.09755 0.09755
H_a H_a 0.22762 0.15252 0.34763
H_a H_a 0.22762 0.40241 0.40241
H_a H_a 0.27234 0.34763 0.34763
H_a H_a 0.27234 0.09755 0.40241
H_a H_a 0.27234 0.15252 0.15252
H_a H_a 0.27234 0.40241 0.09755
Zn_a Zn_a 0.14672 0.10336 0.60332
Zn_a Zn_a 0.39679 0.14672 0.60332
Zn_a Zn_a 0.35324 0.39679 0.60332
Zn_a Zn_a 0.10336 0.35324 0.60332
Zn_a Zn_a 0.14672 0.39679 0.89676
Zn_a Zn_a 0.39679 0.35324 0.89676
Zn_a Zn_a 0.35324 0.10336 0.89676
Zn_a Zn_a 0.10336 0.14672 0.89676
Zn_a Zn_a 0.10336 0.14672 0.60332
Zn_a Zn_a 0.10336 0.39679 0.64668
Zn_a Zn_a 0.10336 0.35324 0.89676
Zn_a Zn_a 0.10336 0.10336 0.85321
Zn_a Zn_a 0.39679 0.14672 0.89676
Zn_a Zn_a 0.39679 0.39679 0.85321
Zn_a Zn_a 0.39679 0.35324 0.60332
Zn_a Zn_a 0.39679 0.10336 0.64668
Zn_a Zn_a 0.35324 0.10336 0.60332
Zn_a Zn_a 0.10336 0.10336 0.64668
Zn_a Zn_a 0.14672 0.10336 0.89676
Zn_a Zn_a 0.39679 0.10336 0.85321
Zn_a Zn_a 0.35324 0.39679 0.89676
Zn_a Zn_a 0.10336 0.39679 0.85321
Zn_a Zn_a 0.14672 0.39679 0.60332
Zn_a Zn_a 0.39679 0.39679 0.64668
Zn_a Zn_a 0.14672 0.35324 0.85321
Zn_a Zn_a 0.35324 0.14672 0.85321
Zn_a Zn_a 0.14672 0.14672 0.64668
Zn_a Zn_a 0.35324 0.35324 0.64668
Zn_a Zn_a 0.35324 0.35324 0.85321
Zn_a Zn_a 0.14672 0.35324 0.64668
Zn_a Zn_a 0.35324 0.14672 0.64668
Zn_a Zn_a 0.14672 0.14672 0.85321
O_a O_a 0.12504 0.12504 0.62500
O_a O_a 0.37492 0.12504 0.62500
O_a O_a 0.37492 0.37492 0.62500
O_a O_a 0.12504 0.37492 0.62500
O_a O_a 0.12504 0.37492 0.87508
O_a O_a 0.37492 0.37492 0.87508
O_a O_a 0.37492 0.12504 0.87508
O_a O_a 0.12504 0.12504 0.87508
O_b O_b 0.14091 0.10897 0.56693
O_b O_b 0.39099 0.14091 0.56693
O_b O_b 0.35905 0.39099 0.56693
O_b O_b 0.10897 0.35905 0.56693
O_b O_b 0.14091 0.39099 0.93295
O_b O_b 0.39099 0.35905 0.93295
O_b O_b 0.35905 0.10897 0.93295
O_b O_b 0.10897 0.14091 0.93295
O_b O_b 0.06697 0.14091 0.60913
O_b O_b 0.06697 0.39099 0.64087
O_b O_b 0.06697 0.35905 0.89095
O_b O_b 0.06697 0.10897 0.85901
O_b O_b 0.43299 0.14091 0.89095
O_b O_b 0.43299 0.39099 0.85901
O_b O_b 0.43299 0.35905 0.60913
O_b O_b 0.43299 0.10897 0.64087
O_b O_b 0.35905 0.06697 0.60913
O_b O_b 0.10897 0.06697 0.64087
O_b O_b 0.14091 0.06697 0.89095
O_b O_b 0.39099 0.06697 0.85901
O_b O_b 0.35905 0.43299 0.89095
O_b O_b 0.10897 0.43299 0.85901
O_b O_b 0.14091 0.43299 0.60913
O_b O_b 0.39099 0.43299 0.64087
O_b O_b 0.35905 0.39099 0.93295
O_b O_b 0.10897 0.35905 0.93295
O_b O_b 0.14091 0.10897 0.93295
O_b O_b 0.39099 0.14091 0.93295
O_b O_b 0.35905 0.10897 0.56693
O_b O_b 0.10897 0.14091 0.56693
O_b O_b 0.14091 0.39099 0.56693
O_b O_b 0.39099 0.35905 0.56693
O_b O_b 0.43299 0.35905 0.89095
O_b O_b 0.43299 0.10897 0.85901
O_b O_b 0.43299 0.14091 0.60913
O_b O_b 0.43299 0.39099 0.64087
O_b O_b 0.06697 0.35905 0.60913
O_b O_b 0.06697 0.10897 0.64087
O_b O_b 0.06697 0.14091 0.89095
O_b O_b 0.06697 0.39099 0.85901
O_b O_b 0.14091 0.43299 0.89095
O_b O_b 0.39099 0.43299 0.85901
O_b O_b 0.35905 0.43299 0.60913
O_b O_b 0.10897 0.43299 0.64087
O_b O_b 0.14091 0.06697 0.60913
O_b O_b 0.39099 0.06697 0.64087
O_b O_b 0.35905 0.06697 0.89095
O_b O_b 0.10897 0.06697 0.85901
O_b O_b 0.14091 0.35905 0.81701
O_b O_b 0.39099 0.39099 0.81701
O_b O_b 0.35905 0.14091 0.81701
O_b O_b 0.10897 0.10897 0.81701
O_b O_b 0.14091 0.14091 0.68307
O_b O_b 0.39099 0.10897 0.68307
O_b O_b 0.35905 0.35905 0.68307
O_b O_b 0.10897 0.39099 0.68307
O_b O_b 0.35905 0.31705 0.85901
O_b O_b 0.10897 0.31705 0.89095
O_b O_b 0.14091 0.31705 0.64087
O_b O_b 0.39099 0.31705 0.60913
O_b O_b 0.35905 0.18291 0.64087
O_b O_b 0.10897 0.18291 0.60913
O_b O_b 0.14091 0.18291 0.85901
O_b O_b 0.39099 0.18291 0.89095
O_b O_b 0.35905 0.14091 0.68307
O_b O_b 0.10897 0.10897 0.68307
O_b O_b 0.14091 0.35905 0.68307
O_b O_b 0.39099 0.39099 0.68307
O_b O_b 0.35905 0.35905 0.81701
O_b O_b 0.10897 0.39099 0.81701
O_b O_b 0.14091 0.14091 0.81701
O_b O_b 0.39099 0.10897 0.81701
O_b O_b 0.14091 0.18291 0.64087
O_b O_b 0.39099 0.18291 0.60913
O_b O_b 0.35905 0.18291 0.85901
O_b O_b 0.10897 0.18291 0.89095
O_b O_b 0.14091 0.31705 0.85901
O_b O_b 0.39099 0.31705 0.89095
O_b O_b 0.35905 0.31705 0.64087
O_b O_b 0.10897 0.31705 0.60913
O_b O_b 0.31705 0.14091 0.85901
O_b O_b 0.31705 0.39099 0.89095
O_b O_b 0.31705 0.35905 0.64087
O_b O_b 0.31705 0.10897 0.60913
O_b O_b 0.18291 0.14091 0.64087
O_b O_b 0.18291 0.39099 0.60913
O_b O_b 0.18291 0.35905 0.85901
O_b O_b 0.18291 0.10897 0.89095
O_b O_b 0.18291 0.35905 0.64087
O_b O_b 0.18291 0.10897 0.60913
O_b O_b 0.18291 0.14091 0.85901
O_b O_b 0.18291 0.39099 0.89095
O_b O_b 0.31705 0.35905 0.85901
O_b O_b 0.31705 0.10897 0.89095
O_b O_b 0.31705 0.14091 0.64087
O_b O_b 0.31705 0.39099 0.60913
C_a C_a 0.12504 0.12504 0.55571
C_a C_a 0.37492 0.12504 0.55571
C_a C_a 0.37492 0.37492 0.55571
C_a C_a 0.12504 0.37492 0.55571
C_a C_a 0.12504 0.37492 0.94437
C_a C_a 0.37492 0.37492 0.94437
C_a C_a 0.37492 0.12504 0.94437
C_a C_a 0.12504 0.12504 0.94437
C_a C_a 0.05574 0.12504 0.62500
C_a C_a 0.05574 0.37492 0.62500
C_a C_a 0.05574 0.37492 0.87508
C_a C_a 0.05574 0.12504 0.87508
C_a C_a 0.44441 0.12504 0.87508
C_a C_a 0.44441 0.37492 0.87508
C_a C_a 0.44441 0.37492 0.62500
C_a C_a 0.44441 0.12504 0.62500
C_a C_a 0.37492 0.05574 0.62500
C_a C_a 0.12504 0.05574 0.62500
C_a C_a 0.12504 0.05574 0.87508
C_a C_a 0.37492 0.05574 0.87508
C_a C_a 0.37492 0.44441 0.87508
C_a C_a 0.12504 0.44441 0.87508
C_a C_a 0.12504 0.44441 0.62500
C_a C_a 0.37492 0.44441 0.62500
C_a C_a 0.12504 0.37492 0.80559
C_a C_a 0.37492 0.37492 0.80559
C_a C_a 0.37492 0.12504 0.80559
C_a C_a 0.12504 0.12504 0.80559
C_a C_a 0.12504 0.12504 0.69429
C_a C_a 0.37492 0.12504 0.69429
C_a C_a 0.37492 0.37492 0.69429
C_a C_a 0.12504 0.37492 0.69429
C_a C_a 0.37492 0.30563 0.87508
C_a C_a 0.12504 0.30563 0.87508
C_a C_a 0.12504 0.30563 0.62500
C_a C_a 0.37492 0.30563 0.62500
C_a C_a 0.37492 0.19433 0.62500
C_a C_a 0.12504 0.19433 0.62500
C_a C_a 0.12504 0.19433 0.87508
C_a C_a 0.37492 0.19433 0.87508
C_a C_a 0.30563 0.12504 0.87508
C_a C_a 0.30563 0.37492 0.87508
C_a C_a 0.30563 0.37492 0.62500
C_a C_a 0.30563 0.12504 0.62500
C_a C_a 0.19433 0.12504 0.62500
C_a C_a 0.19433 0.37492 0.62500
C_a C_a 0.19433 0.37492 0.87508
C_a C_a 0.19433 0.12504 0.87508
C_b C_b 0.12504 0.12504 0.52687
C_b C_b 0.37492 0.12504 0.52687
C_b C_b 0.37492 0.37492 0.52687
C_b C_b 0.12504 0.37492 0.52687
C_b C_b 0.12504 0.37492 0.97302
C_b C_b 0.37492 0.37492 0.97302
C_b C_b 0.37492 0.12504 0.97302
C_b C_b 0.12504 0.12504 0.97302
C_b C_b 0.02690 0.12504 0.62500
C_b C_b 0.02690 0.37492 0.62500
C_b C_b 0.02690 0.37492 0.87508
C_b C_b 0.02690 0.12504 0.87508
C_b C_b 0.47306 0.12504 0.87508
C_b C_b 0.47306 0.37492 0.87508
C_b C_b 0.47306 0.37492 0.62500
C_b C_b 0.47306 0.12504 0.62500
C_b C_b 0.37492 0.02690 0.62500
C_b C_b 0.12504 0.02690 0.62500
C_b C_b 0.12504 0.02690 0.87508
C_b C_b 0.37492 0.02690 0.87508
C_b C_b 0.37492 0.47306 0.87508
C_b C_b 0.12504 0.47306 0.87508
C_b C_b 0.12504 0.47306 0.62500
C_b C_b 0.37492 0.47306 0.62500
C_b C_b 0.12504 0.37492 0.77694
C_b C_b 0.37492 0.37492 0.77694
C_b C_b 0.37492 0.12504 0.77694
C_b C_b 0.12504 0.12504 0.77694
C_b C_b 0.12504 0.12504 0.72313
C_b C_b 0.37492 0.12504 0.72313
C_b C_b 0.37492 0.37492 0.72313
C_b C_b 0.12504 0.37492 0.72313
C_b C_b 0.37492 0.27698 0.87508
C_b C_b 0.12504 0.27698 0.87508
C_b C_b 0.12504 0.27698 0.62500
C_b C_b 0.37492 0.27698 0.62500
C_b C_b 0.37492 0.22317 0.62500
C_b C_b 0.12504 0.22317 0.62500
C_b C_b 0.12504 0.22317 0.87508
C_b C_b 0.37492 0.22317 0.87508
C_b C_b 0.27698 0.12504 0.87508
C_b C_b 0.27698 0.37492 0.87508
C_b C_b 0.27698 0.37492 0.62500
C_b C_b 0.27698 0.12504 0.62500
C_b C_b 0.22317 0.12504 0.62500
C_b C_b 0.22317 0.37492 0.62500
C_b C_b 0.22317 0.37492 0.87508
C_b C_b 0.22317 0.12504 0.87508
C_c C_c 0.14149 0.10859 0.51351
C_c C_c 0.39138 0.14149 0.51351
C_c C_c 0.35847 0.39138 0.51351
C_c C_c 0.10859 0.35847 0.51351
C_c C_c 0.14149 0.39138 0.98657
C_c C_c 0.39138 0.35847 0.98657
C_c C_c 0.35847 0.10859 0.98657
C_c C_c 0.10859 0.14149 0.98657
C_c C_c 0.01336 0.14149 0.60855
C_c C_c 0.01336 0.39138 0.64145
C_c C_c 0.01336 0.35847 0.89153
C_c C_c 0.01336 0.10859 0.85862
C_c C_c 0.48661 0.14149 0.89153
C_c C_c 0.48661 0.39138 0.85862
C_c C_c 0.48661 0.35847 0.60855
C_c C_c 0.48661 0.10859 0.64145
C_c C_c 0.35847 0.01336 0.60855
C_c C_c 0.10859 0.01336 0.64145
C_c C_c 0.14149 0.01336 0.89153
C_c C_c 0.39138 0.01336 0.85862
C_c C_c 0.35847 0.48661 0.89153
C_c C_c 0.10859 0.48661 0.85862
C_c C_c 0.14149 0.48661 0.60855
C_c C_c 0.39138 0.48661 0.64145
C_c C_c 0.35847 0.39138 0.98657
C_c C_c 0.10859 0.35847 0.98657
C_c C_c 0.14149 0.10859 0.98657
C_c C_c 0.39138 0.14149 0.98657
C_c C_c 0.35847 0.10859 0.51351
C_c C_c 0.10859 0.14149 0.51351
C_c C_c 0.14149 0.39138 0.51351
C_c C_c 0.39138 0.35847 0.51351
C_c C_c 0.48661 0.35847 0.89153
C_c C_c 0.48661 0.10859 0.85862
C_c C_c 0.48661 0.14149 0.60855
C_c C_c 0.48661 0.39138 0.64145
C_c C_c 0.01336 0.35847 0.60855
C_c C_c 0.01336 0.10859 0.64145
C_c C_c 0.01336 0.14149 0.89153
C_c C_c 0.01336 0.39138 0.85862
C_c C_c 0.14149 0.48661 0.89153
C_c C_c 0.39138 0.48661 0.85862
C_c C_c 0.35847 0.48661 0.60855
C_c C_c 0.10859 0.48661 0.64145
C_c C_c 0.14149 0.01336 0.60855
C_c C_c 0.39138 0.01336 0.64145
C_c C_c 0.35847 0.01336 0.89153
C_c C_c 0.10859 0.01336 0.85862
C_c C_c 0.14149 0.35847 0.76339
C_c C_c 0.39138 0.39138 0.76339
C_c C_c 0.35847 0.14149 0.76339
C_c C_c 0.10859 0.10859 0.76339
C_c C_c 0.14149 0.14149 0.73649
C_c C_c 0.39138 0.10859 0.73649
C_c C_c 0.35847 0.35847 0.73649
C_c C_c 0.10859 0.39138 0.73649
C_c C_c 0.35847 0.26343 0.85862
C_c C_c 0.10859 0.26343 0.89153
C_c C_c 0.14149 0.26343 0.64145
C_c C_c 0.39138 0.26343 0.60855
C_c C_c 0.35847 0.23653 0.64145
C_c C_c 0.10859 0.23653 0.60855
C_c C_c 0.14149 0.23653 0.85862
C_c C_c 0.39138 0.23653 0.89153
C_c C_c 0.35847 0.14149 0.73649
C_c C_c 0.10859 0.10859 0.73649
C_c C_c 0.14149 0.35847 0.73649
C_c C_c 0.39138 0.39138 0.73649
C_c C_c 0.35847 0.35847 0.76339
C_c C_c 0.10859 0.39138 0.76339
C_c C_c 0.14149 0.14149 0.76339
C_c C_c 0.39138 0.10859 0.76339
C_c C_c 0.14149 0.23653 0.64145
C_c C_c 0.39138 0.23653 0.60855
C_c C_c 0.35847 0.23653 0.85862
C_c C_c 0.10859 0.23653 0.89153
C_c C_c 0.14149 0.26343 0.85862
C_c C_c 0.39138 0.26343 0.89153
C_c C_c 0.35847 0.26343 0.64145
C_c C_c 0.10859 0.26343 0.60855
C_c C_c 0.26343 0.14149 0.85862
C_c C_c 0.26343 0.39138 0.89153
C_c C_c 0.26343 0.35847 0.64145
C_c C_c 0.26343 0.10859 0.60855
C_c C_c 0.23653 0.14149 0.64145
C_c C_c 0.23653 0.39138 0.60855
C_c C_c 0.23653 0.35847 0.85862
C_c C_c 0.23653 0.10859 0.89153
C_c C_c 0.23653 0.35847 0.64145
C_c C_c 0.23653 0.10859 0.60855
C_c C_c 0.23653 0.14149 0.85862
C_c C_c 0.23653 0.39138 0.89153
C_c C_c 0.26343 0.35847 0.85862
C_c C_c 0.26343 0.10859 0.89153
C_c C_c 0.26343 0.14149 0.64145
C_c C_c 0.26343 0.39138 0.60855
H_a H_a 0.15252 0.09755 0.52241
H_a H_a 0.40241 0.15252 0.52241
H_a H_a 0.34763 0.40241 0.52241
H_a H_a 0.09755 0.34763 0.52241
H_a H_a 0.15252 0.40241 0.97766
H_a H_a 0.40241 0.34763 0.97766
H_a H_a 0.34763 0.09755 0.97766
H_a H_a 0.09755 0.15252 0.97766
H_a H_a 0.02245 0.15252 0.59751
H_a H_a 0.02245 0.40241 0.65249
H_a H_a 0.02245 0.34763 0.90237
H_a H_a 0.02245 0.09755 0.84759
H_a H_a 0.47751 0.15252 0.90237
H_a H_a 0.47751 0.40241 0.84759
H_a H_a 0.47751 0.34763 0.59751
H_a H_a 0.47751 0.09755 0.65249
H_a H_a 0.34763 0.02245 0.59751
H_a H_a 0.09755 0.02245 0.65249
H_a H_a 0.15252 0.02245 0.90237
H_a H_a 0.40241 0.02245 0.84759
H_a H_a 0.34763 0.47751 0.90237
H_a H_a 0.09755 0.47751 0.84759
H_a H_a 0.15252 0.47751 0.59751
H_a H_a 0.40241 0.47751 0.65249
H_a H_a 0.34763 0.40241 0.97766
H_a H_a 0.09755 0.34763 0.97766
H_a H_a 0.15252 0.09755 0.97766
H_a H_a 0.40241 0.15252 0.97766
H_a H_a 0.34763 0.09755 0.52241
H_a H_a 0.09755 0.15252 0.52241
H_a H_a 0.15252 0.40241 0.52241
H_a H_a 0.40241 0.34763 0.52241
H_a H_a 0.47751 0.34763 0.90237
H_a H_a 0.47751 0.09755 0.84759
H_a H_a 0.47751 0.15252 0.59751
H_a H_a 0.47751 0.40241 0.65249
H_a H_a 0.02245 0.34763 0.59751
H_a H_a 0.02245 0.09755 0.65249
H_a H_a 0.02245 0.15252 0.90237
H_a H_a 0.02245 0.40241 0.84759
H_a H_a 0.15252 0.47751 0.90237
H_a H_a 0.40241 0.47751 0.84759
H_a H_a 0.34763 0.47751 0.59751
H_a H_a 0.09755 0.47751 0.65249
H_a H_a 0.15252 0.02245 0.59751
H_a H_a 0.40241 0.02245 0.65249
H_a H_a 0.34763 0.02245 0.90237
H_a H_a 0.09755 0.02245 0.84759
H_a H_a 0.15252 0.34763 0.77249
H_a H_a 0.40241 0.40241 0.77249
H_a H_a 0.34763 0.15252 0.77249
H_a H_a 0.09755 0.09755 0.77249
H_a H_a 0.15252 0.15252 0.72759
H_a H_a 0.40241 0.09755 0.72759
H_a H_a 0.34763 0.34763 0.72759
H_a H_a 0.09755 0.40241 0.72759
H_a H_a 0.34763 0.27234 0.84759
H_a H_a 0.09755 0.27234 0.90237
H_a H_a 0.15252 0.27234 0.65249
H_a H_a 0.40241 0.27234 0.59751
H_a H_a 0.34763 0.22762 0.65249
H_a H_a 0.09755 0.22762 0.59751
H_a H_a 0.15252 0.22762 0.84759
H_a H_a 0.40241 0.22762 0.90237
H_a H_a 0.34763 0.15252 0.72759
H_a H_a 0.09755 0.09755 0.72759
H_a H_a 0.15252 0.34763 0.72759
H_a H_a 0.40241 0.40241 0.72759
H_a H_a 0.34763 0.34763 0.77249
H_a H_a 0.09755 0.40241 0.77249
H_a H_a 0.15252 0.15252 0.77249
H_a H_a 0.40241 0.09755 0.77249
H_a H_a 0.15252 0.22762 0.65249
H_a H_a 0.40241 0.22762 0.59751
H_a H_a 0.34763 0.22762 0.84759
H_a H_a 0.09755 0.22762 0.90237
H_a H_a 0.15252 0.27234 0.84759
H_a H_a 0.40241 0.27234 0.90237
H_a H_a 0.34763 0.27234 0.65249
H_a H_a 0.09755 0.27234 0.59751
H_a H_a 0.27234 0.15252 0.84759
H_a H_a 0.27234 0.40241 0.90237
H_a H_a 0.27234 0.34763 0.65249
H_a H_a 0.27234 0.09755 0.59751
H_a H_a 0.22762 0.15252 0.65249
H_a H_a 0.22762 0.40241 0.59751
H_a H_a 0.22762 0.34763 0.84759
H_a H_a 0.22762 0.09755 0.90237
H_a H_a 0.22762 0.34763 0.65249
H_a H_a 0.22762 0.09755 0.59751
H_a H_a 0.22762 0.15252 0.84759
H_a H_a 0.22762 0.40241 0.90237
H_a H_a 0.27234 0.34763 0.84759
H_a H_a 0.27234 0.09755 0.90237
H_a H_a 0.27234 0.15252 0.65249
H_a H_a 0.27234 0.40241 0.59751
Zn_a Zn_a 0.14672 0.60332 0.10336
Zn_a Zn_a 0.39679 0.64668 0.10336
Zn_a Zn_a 0.35324 0.89676 0.10336
Zn_a Zn_a 0.10336 0.85321 0.10336
Zn_a Zn_a 0.14672 0.89676 0.39679
Zn_a Zn_a 0.39679 0.85321 0.39679
Zn_a Zn_a 0.35324 0.60332 0.39679
Zn_a Zn_a 0.10336 0.64668 0.39679
Zn_a Zn_a 0.10336 0.64668 0.10336
Zn_a Zn_a 0.10336 0.89676 0.14672
Zn_a Zn_a 0.10336 0.85321 0.39679
Zn_a Zn_a 0.10336 0.60332 0.35324
Zn_a Zn_a 0.39679 0.64668 0.39679
Zn_a Zn_a 0.39679 0.89676 0.35324
Zn_a Zn_a 0.39679 0.85321 0.10336
Zn_a Zn_a 0.39679 0.60332 0.14672
Zn_a Zn_a 0.35324 0.60332 0.10336
Zn_a Zn_a 0.10336 0.60332 0.14672
Zn_a Zn_a 0.14672 0.60332 0.39679
Zn_a Zn_a 0.39679 0.60332 0.35324
Zn_a Zn_a 0.35324 0.89676 0.39679
Zn_a Zn_a 0.10336 0.89676 0.35324
Zn_a Zn_a 0.14672 0.89676 0.10336
Zn_a Zn_a 0.39679 0.89676 0.14672
Zn_a Zn_a 0.14672 0.85321 0.35324
Zn_a Zn_a 0.35324 0.64668 0.35324
Zn_a Zn_a 0.14672 0.64668 0.14672
Zn_a Zn_a 0.35324 0.85321 0.14672
Zn_a Zn_a 0.35324 0.85321 0.35324
Zn_a Zn_a 0.14672 0.85321 0.14672
Zn_a Zn_a 0.35324 0.64668 0.14672
Zn_a Zn_a 0.14672 0.64668 0.35324
O_a O_a 0.12504 0.62500 0.12504
O_a O_a 0.37492 0.62500 0.12504
O_a O_a 0.37492 0.87508 0.12504
O_a O_a 0.12504 0.87508 0.12504
O_a O_a 0.12504 0.87508 0.37492
O_a O_a 0.37492 0.87508 0.37492
O_a O_a 0.37492 0.62500 0.37492
O_a O_a 0.12504 0.62500 0.37492
O_b O_b 0.14091 0.60913 0.06697
O_b O_b 0.39099 0.64087 0.06697
O_b O_b 0.35905 0.89095 0.06697
O_b O_b 0.10897 0.85901 0.06697
O_b O_b 0.14091 0.89095 0.43299
O_b O_b 0.39099 0.85901 0.43299
O_b O_b 0.35905 0.60913 0.43299
O_b O_b 0.10897 0.64087 0.43299
O_b O_b 0.06697 0.64087 0.10897
O_b O_b 0.06697 0.89095 0.14091
O_b O_b 0.06697 0.85901 0.39099
O_b O_b 0.06697 0.60913 0.35905
O_b O_b 0.43299 0.64087 0.39099
O_b O_b 0.43299 0.89095 0.35905
O_b O_b 0.43299 0.85901 0.10897
O_b O_b 0.43299 0.60913 0.14091
O_b O_b 0.35905 0.56693 0.10897
O_b O_b 0.10897 0.56693 0.14091
O_b O_b 0.14091 0.56693 0.39099
O_b O_b 0.39099 0.56693 0.35905
O_b O_b 0.35905 0.93295 0.39099
O_b O_b 0.10897 0.93295 0.35905
O_b O_b 0.14091 0.93295 0.10897
O_b O_b 0.39099 0.93295 0.14091
O_b O_b 0.35905 0.89095 0.43299
O_b O_b 0.10897 0.85901 0.43299
O_b O_b 0.14091 0.60913 0.43299
O_b O_b 0.39099 0.64087 0.43299
O_b O_b 0.35905 0.60913 0.06697
O_b O_b 0.10897 0.64087 0.06697
O_b O_b 0.14091 0.89095 0.06697
O_b O_b 0.39099 0.85901 0.06697
O_b O_b 0.43299 0.85901 0.39099
O_b O_b 0.43299 0.60913 0.35905
O_b O_b 0.43299 0.64087 0.10897
O_b O_b 0.43299 0.89095 0.14091
O_b O_b 0.06697 0.85901 0.10897
O_b O_b 0.06697 0.60913 0.14091
O_b O_b 0.06697 0.64087 0.39099
O_b O_b 0.06697 0.89095 0.35905
O_b O_b 0.14091 0.93295 0.39099
O_b O_b 0.39099 0.93295 0.35905
O_b O_b 0.35905 0.93295 0.10897
O_b O_b 0.10897 0.93295 0.14091
O_b O_b 0.14091 0.56693 0.10897
O_b O_b 0.39099 0.56693 0.14091
O_b O_b 0.35905 0.56693 0.39099
O_b O_b 0.10897 0.56693 0.35905
O_b O_b 0.14091 0.85901 0.31705
O_b O_b 0.39099 0.89095 0.31705
O_b O_b 0.35905 0.64087 0.31705
O_b O_b 0.10897 0.60913 0.31705
O_b O_b 0.14091 0.64087 0.18291
O_b O_b 0.39099 0.60913 0.18291
O_b O_b 0.35905 0.85901 0.18291
O_b O_b 0.10897 0.89095 0.18291
O_b O_b 0.35905 0.81701 0.35905
O_b O_b 0.10897 0.81701 0.39099
O_b O_b 0.14091 0.81701 0.14091
O_b O_b 0.39099 0.81701 0.10897
O_b O_b 0.35905 0.68307 0.14091
O_b O_b 0.10897 0.68307 0.10897
O_b O_b 0.14091 0.68307 0.35905
O_b O_b 0.39099 0.68307 0.39099
O_b O_b 0.35905 0.64087 0.18291
O_b O_b 0.10897 0.60913 0.18291
O_b O_b 0.14091 0.85901 0.18291
O_b O_b 0.39099 0.89095 0.18291
O_b O_b 0.35905 0.85901 0.31705
O_b O_b 0.10897 0.89095 0.31705
O_b O_b 0.14091 0.64087 0.31705
O_b O_b 0.39099 0.60913 0.31705
O_b O_b 0.14091 0.68307 0.14091
O_b O_b 0.39099 0.68307 0.10897
O_b O_b 0.35905 0.68307 0.35905
O_b O_b 0.10897 0.68307 0.39099
O_b O_b 0.14091 0.81701 0.35905
O_b O_b 0.39099 0.81701 0.39099
O_b O_b 0.35905 0.81701 0.14091
O_b O_b 0.10897 0.81701 0.10897
O_b O_b 0.31705 0.64087 0.35905
O_b O_b 0.31705 0.89095 0.39099
O_b O_b 0.31705 0.85901 0.14091
O_b O_b 0.31705 0.60913 0.10897
O_b O_b 0.18291 0.64087 0.14091
O_b O_b 0.18291 0.89095 0.10897
O_b O_b 0.18291 0.85901 0.35905
O_b O_b 0.18291 0.60913 0.39099
O_b O_b 0.18291 0.85901 0.14091
O_b O_b 0.18291 0.60913 0.10897
O_b O_b 0.18291 0.64087 0.35905
O_b O_b 0.18291 0.89095 0.39099
O_b O_b 0.31705 0.85901 0.35905
O_b O_b 0.31705 0.60913 0.39099
O_b O_b 0.31705 0.64087 0.14091
O_b O_b 0.31705 0.89095 0.10897
C_a C_a 0.12504 0.62500 0.05574
C_a C_a 0.37492 0.62500 0.05574
C_a C_a 0.37492 0.87508 0.05574
C_a C_a 0.12504 0.87508 0.05574
C_a C_a 0.12504 0.87508 0.44441
C_a C_a 0.37492 0.87508 0.44441
C_a C_a 0.37492 0.62500 0.44441
C_a C_a 0.12504 0.62500 0.44441
C_a C_a 0.05574 0.62500 0.12504
C_a C_a 0.05574 0.87508 0.12504
C_a C_a 0.05574 0.87508 0.37492
C_a C_a 0.05574 0.62500 0.37492
C_a C_a 0.44441 0.62500 0.37492
C_a C_a 0.44441 0.87508 0.37492
C_a C_a 0.44441 0.87508 0.12504
C_a C_a 0.44441 0.62500 0.12504
C_a C_a 0.37492 0.55571 0.12504
C_a C_a 0.12504 0.55571 0.12504
C_a C_a 0.12504 0.55571 0.37492
C_a C_a 0.37492 0.55571 0.37492
C_a C_a 0.37492 0.94437 0.37492
C_a C_a 0.12504 0.94437 0.37492
C_a C_a 0.12504 0.94437 0.12504
C_a C_a 0.37492 0.94437 0.12504
C_a C_a 0.12504 0.87508 0.30563
C_a C_a 0.37492 0.87508 0.30563
C_a C_a 0.37492 0.62500 0.30563
C_a C_a 0.12504 0.62500 0.30563
C_a C_a 0.12504 0.62500 0.19433
C_a C_a 0.37492 0.62500 0.19433
C_a C_a 0.37492 0.87508 0.19433
C_a C_a 0.12504 0.87508 0.19433
C_a C_a 0.37492 0.80559 0.37492
C_a C_a 0.12504 0.80559 0.37492
C_a C_a 0.12504 0.80559 0.12504
C_a C_a 0.37492 0.80559 0.12504
C_a C_a 0.37492 0.69429 0.12504
C_a C_a 0.12504 0.69429 0.12504
C_a C_a 0.12504 0.69429 0.37492
C_a C_a 0.37492 0.69429 0.37492
C_a C_a 0.30563 0.62500 0.37492
C_a C_a 0.30563 0.87508 0.37492
C_a C_a 0.30563 0.87508 0.12504
C_a C_a 0.30563 0.62500 0.12504
C_a C_a 0.19433 0.62500 0.12504
C_a C_a 0.19433 0.87508 0.12504
C_a C_a 0.19433 0.87508 0.37492
C_a C_a 0.19433 0.62500 0.37492
C_b C_b 0.12504 0.62500 0.02690
C_b C_b 0.37492 0.62500 0.02690
C_b C_b 0.37492 0.87508 0.02690
C_b C_b 0.12504 0.87508 0.02690
C_b C_b 0.12504 0.87508 0.47306
C_b C_b 0.37492 0.87508 0.47306
C_b C_b 0.37492 0.62500 0.47306
C_b C_b 0.12504 0.62500 0.47306
C_b C_b 0.02690 0.62500 0.12504
C_b C_b 0.02690 0.87508 0.12504
C_b C_b 0.02690 0.87508 0.37492
C_b C_b 0.02690 0.62500 0.37492
C_b C_b 0.47306 0.62500 0.37492
C_b C_b 0.47306 0.87508 0.37492
C_b C_b 0.47306 0.87508 0.12504
C_b C_b 0.47306 0.62500 0.12504
C_b C_b 0.37492 0.52687 0.12504
C_b C_b 0.12504 0.52687 0.12504
C_b C_b 0.12504 0.52687 0.37492
C_b C_b 0.37492 0.52687 0.37492
C_b C_b 0.37492 0.97302 0.37492
C_b C_b 0.12504 0.97302 0.37492
C_b C_b 0.12504 0.97302 0.12504
C_b C_b 0.37492 0.97302 0.12504
C_b C_b 0.12504 0.87508 0.27698
C_b C_b 0.37492 0.87508 0.27698
C_b C_b 0.37492 0.62500 0.27698
C_b C_b 0.12504 0.62500 0.27698
C_b C_b 0.12504 0.62500 0.22317
C_b C_b 0.37492 0.62500 0.22317
C_b C_b 0.37492 0.87508 0.22317
C_b C_b 0.12504 0.87508 0.22317
C_b C_b 0.37492 0.77694 0.37492
C_b C_b 0.12504 0.77694 0.37492
C_b C_b 0.12504 0.77694 0.12504
C_b C_b 0.37492 0.77694 0.12504
C_b C_b 0.37492 0.72313 0.12504
C_b C_b 0.12504 0.72313 0.12504
C_b C_b 0.12504 0.72313 0.37492
C_b C_b 0.37492 0.72313 0.37492
C_b C_b 0.27698 0.62500 0.37492
C_b C_b 0.27698 0.87508 0.37492
C_b C_b 0.27698 0.87508 0.12504
C_b C_b 0.27698 0.62500 0.12504
C_b C_b 0.22317 0.62500 0.12504
C_b C_b 0.22317 0.87508 0.12504
C_b C_b 0.22317 0.87508 0.37492
C_b C_b 0.22317 0.62500 0.37492
C_c C_c 0.14149 0.60855 0.01336
C_c C_c 0.39138 0.64145 0.01336
C_c C_c 0.35847 0.89153 0.01336
C_c C_c 0.10859 0.85862 0.01336
C_c C_c 0.14149 0.89153 0.48661
C_c C_c 0.39138 0.85862 0.48661
C_c C_c 0.35847 0.60855 0.48661
C_c C_c 0.10859 0.64145 0.48661
C_c C_c 0.01336 0.64145 0.10859
C_c C_c 0.01336 0.89153 0.14149
C_c C_c 0.01336 0.85862 0.39138
C_c C_c 0.01336 0.60855 0.35847
C_c C_c 0.48661 0.64145 0.39138
C_c C_c 0.48661 0.89153 0.35847
C_c C_c 0.48661 0.85862 0.10859
C_c C_c 0.48661 0.60855 0.14149
C_c C_c 0.35847 0.51351 0.10859
C_c C_c 0.10859 0.51351 0.14149
C_c C_c 0.14149 0.51351 0.39138
C_c C_c 0.39138 0.51351 0.35847
C_c C_c 0.35847 0.98657 0.39138
C_c C_c 0.10859 0.98657 0.35847
C_c C_c 0.14149 0.98657 0.10859
C_c C_c 0.39138 0.98657 0.14149
C_c C_c 0.35847 0.89153 0.48661
C_c C_c 0.10859 0.85862 0.48661
C_c C_c 0.14149 0.60855 0.48661
C_c C_c 0.39138 0.64145 0.48661
C_c C_c 0.35847 0.60855 0.01336
C_c C_c 0.10859 0.64145 0.01336
C_c C_c 0.14149 0.89153 0.01336
C_c C_c 0.39138 0.85862 0.01336
C_c C_c 0.48661 0.85862 0.39138
C_c C_c 0.48661 0.60855 0.35847
C_c C_c 0.48661 0.64145 0.10859
C_c C_c 0.48661 0.89153 0.14149
C_c C_c 0.01336 0.85862 0.10859
C_c C_c 0.01336 0.60855 0.14149
C_c C_c 0.01336 0.64145 0.39138
C_c C_c 0.01336 0.89153 0.35847
C_c C_c 0.14149 0.98657 0.39138
C_c C_c 0.39138 0.98657 0.35847
C_c C_c 0.35847 0.98657 0.10859
C_c C_c 0.10859 0.98657 0.14149
C_c C_c 0.14149 0.51351 0.10859
C_c C_c 0.39138 0.51351 0.14149
C_c C_c 0.35847 0.51351 0.39138
C_c C_c 0.10859 0.51351 0.35847
C_c C_c 0.14149 0.85862 0.26343
C_c C_c 0.39138 0.89153 0.26343
C_c C_c 0.35847 0.64145 0.26343
C_c C_c 0.10859 0.60855 0.26343
C_c C_c 0.14149 0.64145 0.23653
C_c C_c 0.39138 0.60855 0.23653
C_c C_c 0.35847 0.85862 0.23653
C_c C_c 0.10859 0.89153 0.23653
C_c C_c 0.35847 0.76339 0.35847
C_c C_c 0.10859 0.76339 0.39138
C_c C_c 0.14149 0.76339 0.14149
C_c C_c 0.39138 0.76339 0.10859
C_c C_c 0.35847 0.73649 0.14149
C_c C_c 0.10859 0.73649 0.10859
C_c C_c 0.14149 0.73649 0.35847
C_c C_c 0.39138 0.73649 0.39138
C_c C_c 0.35847 0.64145 0.23653
C_c C_c 0.10859 0.60855 0.23653
C_c C_c 0.14149 0.85862 0.23653
C_c C_c 0.39138 0.89153 0.23653
C_c C_c 0.35847 0.85862 0.26343
C_c C_c 0.10859 0.89153 0.26343
C_c C_c 0.14149 0.64145 0.26343
C_c C_c 0.39138 0.60855 0.26343
C_c C_c 0.14149 0.73649 0.14149
C_c C_c 0.39138 0.73649 0.10859
C_c C_c 0.35847 0.73649 0.35847
C_c C_c 0.10859 0.73649 0.39138
C_c C_c 0.14149 0.76339 0.35847
C_c C_c 0.39138 0.76339 0.39138
C_c C_c 0.35847 0.76339 0.14149
C_c C_c 0.10859 0.76339 0.10859
C_c C_c 0.26343 0.64145 0.35847
C_c C_c 0.26343 0.89153 0.39138
C_c C_c 0.26343 0.85862 0.14149
C_c C_c 0.26343 0.60855 0.10859
C_c C_c 0.23653 0.64145 0.14149
C_c C_c 0.23653 0.89153 0.10859
C_c C_c 0.23653 0.85862 0.35847
C_c C_c 0.23653 0.60855 0.39138
C_c C_c 0.23653 0.85862 0.14149
C_c C_c 0.23653 0.60855 0.10859
C_c C_c 0.23653 0.64145 0.35847
C_c C_c 0.23653 0.89153 0.39138
C_c C_c 0.26343 0.85862 0.35847
C_c C_c 0.26343 0.60855 0.39138
C_c C_c 0.26343 0.64145 0.14149
C_c C_c 0.26343 0.89153 0.10859
H_a H_a 0.15252 0.59751 0.02245
H_a H_a 0.40241 0.65249 0.02245
H_a H_a 0.34763 0.90237 0.02245
H_a H_a 0.09755 0.84759 0.02245
H_a H_a 0.15252 0.90237 0.47751
H_a H_a 0.40241 0.84759 0.47751
H_a H_a 0.34763 0.59751 0.47751
H_a H_a 0.09755 0.65249 0.47751
H_a H_a 0.02245 0.65249 0.09755
H_a H_a 0.02245 0.90237 0.15252
H_a H_a 0.02245 0.84759 0.40241
H_a H_a 0.02245 0.59751 0.34763
H_a H_a 0.47751 0.65249 0.40241
H_a H_a 0.47751 0.90237 0.34763
H_a H_a 0.47751 0.84759 0.09755
H_a H_a 0.47751 0.59751 0.15252
H_a H_a 0.34763 0.52241 0.09755
H_a H_a 0.09755 0.52241 0.15252
H_a H_a 0.15252 0.52241 0.40241
H_a H_a 0.40241 0.52241 0.34763
H_a H_a 0.34763 0.97766 0.40241
H_a H_a 0.09755 0.97766 0.34763
H_a H_a 0.15252 0.97766 0.09755
H_a H_a 0.40241 0.97766 0.15252
H_a H_a 0.34763 0.90237 0.47751
H_a H_a 0.09755 0.84759 0.47751
H_a H_a 0.15252 0.59751 0.47751
H_a H_a 0.40241 0.65249 0.47751
H_a H_a 0.34763 0.59751 0.02245
H_a H_a 0.09755 0.65249 0.02245
H_a H_a 0.15252 0.90237 0.02245
H_a H_a 0.40241 0.84759 0.02245
H_a H_a 0.47751 0.84759 0.40241
H_a H_a 0.47751 0.59751 0.34763
H_a H_a 0.47751 0.65249 0.09755
H_a H_a 0.47751 0.90237 0.15252
H_a H_a 0.02245 0.84759 0.09755
H_a H_a 0.02245 0.59751 0.15252
H_a H_a 0.02245 0.65249 0.40241
H_a H_a 0.02245 0.90237 0.34763
H_a H_a 0.15252 0.97766 0.40241
H_a H_a 0.40241 0.97766 0.34763
H_a H_a 0.34763 0.97766 0.09755
H_a H_a 0.09755 0.97766 0.15252
H_a H_a 0.15252 0.52241 0.09755
H_a H_a 0.40241 0.52241 0.15252
H_a H_a 0.34763 0.52241 0.40241
H_a H_a 0.09755 0.52241 0.34763
H_a H_a 0.15252 0.84759 0.27234
H_a H_a 0.40241 0.90237 0.27234
H_a H_a 0.34763 0.65249 0.27234
H_a H_a 0.09755 0.59751 0.27234
H_a H_a 0.15252 0.65249 0.22762
H_a H_a 0.40241 0.59751 0.22762
H_a H_a 0.34763 0.84759 0.22762
H_a H_a 0.09755 0.90237 0.22762
H_a H_a 0.34763 0.77249 0.34763
H_a H_a 0.09755 0.77249 0.40241
H_a H_a 0.15252 0.77249 0.15252
H_a H_a 0.40241 0.77249 0.09755
H_a H_a 0.34763 0.72759 0.15252
H_a H_a 0.09755 0.72759 0.09755
H_a H_a 0.15252 0.72759 0.34763
H_a H_a 0.40241 0.72759 0.40241
H_a H_a 0.34763 0.65249 0.22762
H_a H_a 0.09755 0.59751 0.22762
H_a H_a 0.15252 0.84759 0.22762
H_a H_a 0.40241 0.90237 0.22762
H_a H_a 0.34763 0.84759 0.27234
H_a H_a 0.09755 0.90237 0.27234
H_a H_a 0.15252 0.65249 0.27234
H_a H_a 0.40241 0.59751 0.27234
H_a H_a 0.15252 0.72759 0.15252
H_a H_a 0.40241 0.72759 0.09755
H_a H_a 0.34763 0.72759 0.34763
H_a H_a 0.09755 0.72759 0.40241
H_a H_a 0.15252 0.77249 0.34763
H_a H_a 0.40241 0.77249 0.40241
H_a H_a 0.34763 0.77249 0.15252
H_a H_a 0.09755 0.77249 0.09755
H_a H_a 0.27234 0.65249 0.34763
H_a H_a 0.27234 0.90237 0.40241
H_a H_a 0.27234 0.84759 0.15252
H_a H_a 0.27234 0.59751 0.09755
H_a H_a 0.22762 0.65249 0.15252
H_a H_a 0.22762 0.90237 0.09755
H_a H_a 0.22762 0.84759 0.34763
H_a H_a 0.22762 0.59751 0.40241
H_a H_a 0.22762 0.84759 0.15252
H_a H_a 0.22762 0.59751 0.09755
H_a H_a 0.22762 0.65249 0.34763
H_a H_a 0.22762 0.90237 0.40241
H_a H_a 0.27234 0.84759 0.34763
H_a H_a 0.27234 0.59751 0.40241
H_a H_a 0.27234 0.65249 0.15252
H_a H_a 0.27234 0.90237 0.09755
Zn_a Zn_a 0.14672 0.60332 0.60332
Zn_a Zn_a 0.39679 0.64668 0.60332
Zn_a Zn_a 0.35324 0.89676 0.60332
Zn_a Zn_a 0.10336 0.85321 0.60332
Zn_a Zn_a 0.14672 0.89676 0.89676
Zn_a Zn_a 0.39679 0.85321 0.89676
Zn_a Zn_a 0.35324 0.60332 0.89676
Zn_a Zn_a 0.10336 0.64668 0.89676
Zn_a Zn_a 0.10336 0.64668 0.60332
Zn_a Zn_a 0.10336 0.89676 0.64668
Zn_a Zn_a 0.10336 0.85321 0.89676
Zn_a Zn_a 0.10336 0.60332 0.85321
Zn_a Zn_a 0.39679 0.64668 0.89676
Zn_a Zn_a 0.39679 0.89676 0.85321
Zn_a Zn_a 0.39679 0.85321 0.60332
Zn_a Zn_a 0.39679 0.60332 0.64668
Zn_a Zn_a 0.35324 0.60332 0.60332
Zn_a Zn_a 0.10336 0.60332 0.64668
Zn_a Zn_a 0.14672 0.60332 0.89676
Zn_a Zn_a 0.39679 0.60332 0.85321
Zn_a Zn_a 0.35324 0.89676 0.89676
Zn_a Zn_a 0.10336 0.89676 0.85321
Zn_a Zn_a 0.14672 0.89676 0.60332
Zn_a Zn_a 0.39679 0.89676 0.64668
Zn_a Zn_a 0.14672 0.85321 0.85321
Zn_a Zn_a 0.35324 0.64668 0.85321
Zn_a Zn_a 0.14672 0.64668 0.64668
Zn_a Zn_a 0.35324 0.85321 0.64668
Zn_a Zn_a 0.35324 0.85321 0.85321
Zn_a Zn_a 0.14672 0.85321 0.64668
Zn_a Zn_a 0.35324 0.64668 0.64668
Zn_a Zn_a 0.14672 0.64668 0.85321
O_a O_a 0.12504 0.62500 0.62500
O_a O_a 0.37492 0.62500 0.62500
O_a O_a 0.37492 0.87508 0.62500
O_a O_a 0.12504 0.87508 0.62500
O_a O_a 0.12504 0.87508 0.87508
O_a O_a 0.37492 0.87508 0.87508
O_a O_a 0.37492 0.62500 0.87508
O_a O_a 0.12504 0.62500 0.87508
O_b O_b 0.14091 0.60913 0.56693
O_b O_b 0.39099 0.64087 0.56693
O_b O_b 0.35905 0.89095 0.56693
O_b O_b 0.10897 0.85901 0.56693
O_b O_b 0.14091 0.89095 0.93295
O_b O_b 0.39099 0.85901 0.93295
O_b O_b 0.35905 0.60913 0.93295
O_b O_b 0.10897 0.64087 0.93295
O_b O_b 0.06697 0.64087 0.60913
O_b O_b 0.06697 0.89095 0.64087
O_b O_b 0.06697 0.85901 0.89095
O_b O_b 0.06697 0.60913 0.85901
O_b O_b 0.43299 0.64087 0.89095
O_b O_b 0.43299 0.89095 0.85901
O_b O_b 0.43299 0.85901 0.60913
O_b O_b 0.43299 0.60913 0.64087
O_b O_b 0.35905 0.56693 0.60913
O_b O_b 0.10897 0.56693 0.64087
O_b O_b 0.14091 0.56693 0.89095
O_b O_b 0.39099 0.56693 0.85901
O_b O_b 0.35905 0.93295 0.89095
O_b O_b 0.10897 0.93295 0.85901
O_b O_b 0.14091 0.93295 0.60913
O_b O_b 0.39099 0.93295 0.64087
O_b O_b 0.35905 0.89095 0.93295
O_b O_b 0.10897 0.85901 0.93295
O_b O_b 0.14091 0.60913 0.93295
O_b O_b 0.39099 0.64087 0.93295
O_b O_b 0.35905 0.60913 0.56693
O_b O_b 0.10897 0.64087 0.56693
O_b O_b 0.14091 0.89095 0.56693
O_b O_b 0.39099 0.85901 0.56693
O_b O_b 0.43299 0.85901 0.89095
O_b O_b 0.43299 0.60913 0.85901
O_b O_b 0.43299 0.64087 0.60913
O_b O_b 0.43299 0.89095 0.64087
O_b O_b 0.06697 0.85901 0.60913
O_b O_b 0.06697 0.60913 0.64087
O_b O_b 0.06697 0.64087 0.89095
O_b O_b 0.06697 0.89095 0.85901
O_b O_b 0.14091 0.93295 0.89095
O_b O_b 0.39099 0.93295 0.85901
O_b O_b 0.35905 0.93295 0.60913
O_b O_b 0.10897 0.93295 0.64087
O_b O_b 0.14091 0.56693 0.60913
O_b O_b 0.39099 0.56693 0.64087
O_b O_b 0.35905 0.56693 0.89095
O_b O_b 0.10897 0.56693 0.85901
O_b O_b 0.14091 0.85901 0.81701
O_b O_b 0.39099 0.89095 0.81701
O_b O_b 0.35905 0.64087 0.81701
O_b O_b 0.10897 0.60913 0.81701
O_b O_b 0.14091 0.64087 0.68307
O_b O_b 0.39099 0.60913 0.68307
O_b O_b 0.35905 0.85901 0.68307
O_b O_b 0.10897 0.89095 0.68307
O_b O_b 0.35905 0.81701 0.85901
O_b O_b 0.10897 0.81701 0.89095
O_b O_b 0.14091 0.81701 0.64087
O_b O_b 0.39099 0.81701 0.60913
O_b O_b 0.35905 0.68307 0.64087
O_b O_b 0.10897 0.68307 0.60913
O_b O_b 0.14091 0.68307 0.85901
O_b O_b 0.39099 0.68307 0.89095
O_b O_b 0.35905 0.64087 0.68307
O_b O_b 0.10897 0.60913 0.68307
O_b O_b 0.14091 0.85901 0.68307
O_b O_b 0.39099 0.89095 0.68307
O_b O_b 0.35905 0.85901 0.81701
O_b O_b 0.10897 0.89095 0.81701
O_b O_b 0.14091 0.64087 0.81701
O_b O_b 0.39099 0.60913 0.81701
O_b O_b 0.14091 0.68307 0.64087
O_b O_b 0.39099 0.68307 0.60913
O_b O_b 0.35905 0.68307 0.85901
O_b O_b 0.10897 0.68307 0.89095
O_b O_b 0.14091 0.81701 0.85901
O_b O_b 0.39099 0.81701 0.89095
O_b O_b 0.35905 0.81701 0.64087
O_b O_b 0.10897 0.81701 0.60913
O_b O_b 0.31705 0.64087 0.85901
O_b O_b 0.31705 0.89095 0.89095
O_b O_b 0.31705 0.85901 0.64087
O_b O_b 0.31705 0.60913 0.60913
O_b O_b 0.18291 0.64087 0.64087
O_b O_b 0.18291 0.89095 0.60913
O_b O_b 0.18291 0.85901 0.85901
O_b O_b 0.18291 0.60913 0.89095
O_b O_b 0.18291 0.85901 0.64087
O_b O_b 0.18291 0.60913 0.60913
O_b O_b 0.18291 0.64087 0.85901
O_b O_b 0.18291 0.89095 0.89095
O_b O_b 0.31705 0.85901 0.85901
O_b O_b 0.31705 0.60913 0.89095
O_b O_b 0.31705 0.64087 0.64087
O_b O_b 0.31705 0.89095 0.60913
C_a C_a 0.12504 0.62500 0.55571
C_a C_a 0.37492 0.62500 0.55571
C_a C_a 0.37492 0.87508 0.55571
C_a C_a 0.12504 0.87508 0.55571
C_a C_a 0.12504 0.87508 0.94437
C_a C_a 0.37492 0.87508 0.94437
C_a C_a 0.37492 0.62500 0.94437
C_a C_a 0.12504 0.62500 0.94437
C_a C_a 0.05574 0.62500 0.62500
C_a C_a 0.05574 0.87508 0.62500
C_a C_a 0.05574 0.87508 0.87508
C_a C_a 0.05574 0.62500 0.87508
C_a C_a 0.44441 0.62500 0.87508
C_a C_a 0.44441 0.87508 0.87508
C_a C_a 0.44441 0.87508 0.62500
C_a C_a 0.44441 0.62500 0.62500
C_a C_a 0.37492 0.55571 0.62500
C_a C_a 0.12504 0.55571 0.62500
C_a C_a 0.12504 0.55571 0.87508
C_a C_a 0.37492 0.55571 0.87508
C_a C_a 0.37492 0.94437 0.87508
C_a C_a 0.12504 0.94437 0.87508
C_a C_a 0.12504 0.94437 0.62500
C_a C_a 0.37492 0.94437 0.62500
C_a C_a 0.12504 0.87508 0.80559
C_a C_a 0.37492 0.87508 0.80559
C_a C_a 0.37492 0.62500 0.80559
C_a C_a 0.12504 0.62500 0.80559
C_a C_a 0.12504 0.62500 0.69429
C_a C_a 0.37492 0.62500 0.69429
C_a C_a 0.37492 0.87508 0.69429
C_a C_a 0.12504 0.87508 0.69429
C_a C_a 0.37492 0.80559 0.87508
C_a C_a 0.12504 0.80559 0.87508
C_a C_a 0.12504 0.80559 0.62500
C_a C_a 0.37492 0.80559 0.62500
C_a C_a 0.37492 0.69429 0.62500
C_a C_a 0.12504 0.69429 0.62500
C_a C_a 0.12504 0.69429 0.87508
C_a C_a 0.37492 0.69429 0.87508
C_a C_a 0.30563 0.62500 0.87508
C_a C_a 0.30563 0.87508 0.87508
C_a C_a 0.30563 0.87508 0.62500
C_a C_a 0.30563 0.62500 0.62500
C_a C_a 0.19433 0.62500 0.62500
C_a C_a 0.19433 0.87508 0.62500
C_a C_a 0.19433 0.87508 0.87508
C_a C_a 0.19433 0.62500 0.87508
C_b C_b 0.12504 0.62500 0.52687
C_b C_b 0.37492 0.62500 0.52687
C_b C_b 0.37492 0.87508 0.52687
C_b C_b 0.12504 0.87508 0.52687
C_b C_b 0.12504 0.87508 0.97302
C_b C_b 0.37492 0.87508 0.97302
C_b C_b 0.37492 0.62500 0.97302
C_b C_b 0.12504 0.62500 0.97302
C_b C_b 0.02690 0.62500 0.62500
C_b C_b 0.02690 0.87508 0.62500
C_b C_b 0.02690 0.87508 0.87508
C_b C_b 0.02690 0.62500 0.87508
C_b C_b 0.47306 0.62500 0.87508
C_b C_b 0.47306 0.87508 0.87508
C_b C_b 0.47306 0.87508 0.62500
C_b C_b 0.47306 0.62500 0.62500
C_b C_b 0.37492 0.52687 0.62500
C_b C_b 0.12504 0.52687 0.62500
C_b C_b 0.12504 0.52687 0.87508
C_b C_b 0.37492 0.52687 0.87508
C_b C_b 0.37492 0.97302 0.87508
C_b C_b 0.12504 0.97302 0.87508
C_b C_b 0.12504 0.97302 0.62500
C_b C_b 0.37492 0.97302 0.62500
C_b C_b 0.12504 0.87508 0.77694
C_b C_b 0.37492 0.87508 0.77694
C_b C_b 0.37492 0.62500 0.77694
C_b C_b 0.12504 0.62500 0.77694
C_b C_b 0.12504 0.62500 0.72313
C_b C_b 0.37492 0.62500 0.72313
C_b C_b 0.37492 0.87508 0.72313
C_b C_b 0.12504 0.87508 0.72313
C_b C_b 0.37492 0.77694 0.87508
C_b C_b 0.12504 0.77694 0.87508
C_b C_b 0.12504 0.77694 0.62500
C_b C_b 0.37492 0.77694 0.62500
C_b C_b 0.37492 0.72313 0.62500
C_b C_b 0.12504 0.72313 0.62500
C_b C_b 0.12504 0.72313 0.87508
C_b C_b 0.37492 0.72313 0.87508
C_b C_b 0.27698 0.62500 0.87508
C_b C_b 0.27698 0.87508 0.87508
C_b C_b 0.27698 0.87508 0.62500
C_b C_b 0.27698 0.62500 0.62500
C_b C_b 0.22317 0.62500 0.62500
C_b C_b 0.22317 0.87508 0.62500
C_b C_b 0.22317 0.87508 0.87508
C_b C_b 0.22317 0.62500 0.87508
C_c C_c 0.14149 0.60855 0.51351
C_c C_c 0.39138 0.64145 0.51351
C_c C_c 0.35847 0.89153 0.51351
C_c C_c 0.10859 0.85862 0.51351
C_c C_c 0.14149 0.89153 0.98657
C_c C_c 0.39138 0.85862 0.98657
C_c C_c 0.35847 0.60855 0.98657
C_c C_c 0.10859 0.64145 0.98657
C_c C_c 0.01336 0.64145 0.60855
C_c C_c 0.01336 0.89153 0.64145
C_c C_c 0.01336 0.85862 0.89153
C_c C_c 0.01336 0.60855 0.85862
C_c C_c 0.48661 0.64145 0.89153
C_c C_c 0.48661 0.89153 0.85862
C_c C_c 0.48661 0.85862 0.60855
C_c C_c 0.48661 0.60855 0.64145
C_c C_c 0.35847 0.51351 0.60855
C_c C_c 0.10859 0.51351 0.64145
C_c C_c 0.14149 0.51351 0.89153
C_c C_c 0.39138 0.51351 0.85862
C_c C_c 0.35847 0.98657 0.89153
C_c C_c 0.10859 0.98657 0.85862
C_c C_c 0.14149 0.98657 0.60855
C_c C_c 0.39138 0.98657 0.64145
C_c C_c 0.35847 0.89153 0.98657
C_c C_c 0.10859 0.85862 0.98657
C_c C_c 0.14149 0.60855 0.98657
C_c C_c 0.39138 0.64145 0.98657
C_c C_c 0.35847 0.60855 0.51351
C_c C_c 0.10859 0.64145 0.51351
C_c C_c 0.14149 0.89153 0.51351
C_c C_c 0.39138 0.85862 0.51351
C_c C_c 0.48661 0.85862 0.89153
C_c C_c 0.48661 0.60855 0.85862
C_c C_c 0.48661 0.64145 0.60855
C_c C_c 0.48661 0.89153 0.64145
C_c C_c 0.01336 0.85862 0.60855
C_c C_c 0.01336 0.60855 0.64145
C_c C_c 0.01336 0.64145 0.89153
C_c C_c 0.01336 0.89153 0.85862
C_c C_c 0.14149 0.98657 0.89153
C_c C_c 0.39138 0.98657 0.85862
C_c C_c 0.35847 0.98657 0.60855
C_c C_c 0.10859 0.98657 0.64145
C_c C_c 0.14149 0.51351 0.60855
C_c C_c 0.39138 0.51351 0.64145
C_c C_c 0.35847 0.51351 0.89153
C_c C_c 0.10859 0.51351 0.85862
C_c C_c 0.14149 0.85862 0.76339
C_c C_c 0.39138 0.89153 0.76339
C_c C_c 0.35847 0.64145 0.76339
C_c C_c 0.10859 0.60855 0.76339
C_c C_c 0.14149 0.64145 0.73649
C_c C_c 0.39138 0.60855 0.73649
C_c C_c 0.35847 0.85862 0.73649
C_c C_c 0.10859 0.89153 0.73649
C_c C_c 0.35847 0.76339 0.85862
C_c C_c 0.10859 0.76339 0.89153
C_c C_c 0.14149 0.76339 0.64145
C_c C_c 0.39138 0.76339 0.60855
C_c C_c 0.35847 0.73649 0.64145
C_c C_c 0.10859 0.73649 0.60855
C_c C_c 0.14149 0.73649 0.85862
C_c C_c 0.39138 0.73649 0.89153
C_c C_c 0.35847 0.64145 0.73649
C_c C_c 0.10859 0.60855 0.73649
C_c C_c 0.14149 0.85862 0.73649
C_c C_c 0.39138 0.89153 0.73649
C_c C_c 0.35847 0.85862 0.76339
C_c C_c 0.10859 0.89153 0.76339
C_c C_c 0.14149 0.64145 0.76339
C_c C_c 0.39138 0.60855 0.76339
C_c C_c 0.14149 0.73649 0.64145
C_c C_c 0.39138 0.73649 0.60855
C_c C_c 0.35847 0.73649 0.85862
C_c C_c 0.10859 0.73649 0.89153
C_c C_c 0.14149 0.76339 0.85862
C_c C_c 0.39138 0.76339 0.89153
C_c C_c 0.35847 0.76339 0.64145
C_c C_c 0.10859 0.76339 0.60855
C_c C_c 0.26343 0.64145 0.85862
C_c C_c 0.26343 0.89153 0.89153
C_c C_c 0.26343 0.85862 0.64145
C_c C_c 0.26343 0.60855 0.60855
C_c C_c 0.23653 0.64145 0.64145
C_c C_c 0.23653 0.89153 0.60855
C_c C_c 0.23653 0.85862 0.85862
C_c C_c 0.23653 0.60855 0.89153
C_c C_c 0.23653 0.85862 0.64145
C_c C_c 0.23653 0.60855 0.60855
C_c C_c 0.23653 0.64145 0.85862
C_c C_c 0.23653 0.89153 0.89153
C_c C_c 0.26343 0.85862 0.85862
C_c C_c 0.26343 0.60855 0.89153
C_c C_c 0.26343 0.64145 0.64145
C_c C_c 0.26343 0.89153 0.60855
H_a H_a 0.15252 0.59751 0.52241
H_a H_a 0.40241 0.65249 0.52241
H_a H_a 0.34763 0.90237 0.52241
H_a H_a 0.09755 0.84759 0.52241
H_a H_a 0.15252 0.90237 0.97766
H_a H_a 0.40241 0.84759 0.97766
H_a H_a 0.34763 0.59751 0.97766
H_a H_a 0.09755 0.65249 0.97766
H_a H_a 0.02245 0.65249 0.59751
H_a H_a 0.02245 0.90237 0.65249
H_a H_a 0.02245 0.84759 0.90237
H_a H_a 0.02245 0.59751 0.84759
H_a H_a 0.47751 0.65249 0.90237
H_a H_a 0.47751 0.90237 0.84759
H_a H_a 0.47751 0.84759 0.59751
H_a H_a 0.47751 0.59751 0.65249
H_a H_a 0.34763 0.52241 0.59751
H_a H_a 0.09755 0.52241 0.65249
H_a H_a 0.15252 0.52241 0.90237
H_a H_a 0.40241 0.52241 0.84759
H_a H_a 0.34763 0.97766 0.90237
H_a H_a 0.09755 0.97766 0.84759
H_a H_a 0.15252 0.97766 0.59751
H_a H_a 0.40241 0.97766 0.65249
H_a H_a 0.34763 0.90237 0.97766
H_a H_a 0.09755 0.84759 0.97766
H_a H_a 0.15252 0.59751 0.97766
H_a H_a 0.40241 0.65249 0.97766
H_a H_a 0.34763 0.59751 0.52241
H_a H_a 0.09755 0.65249 0.52241
H_a H_a 0.15252 0.90237 0.52241
H_a H_a 0.40241 0.84759 0.52241
H_a H_a 0.47751 0.84759 0.90237
H_a H_a 0.47751 0.59751 0.84759
H_a H_a 0.47751 0.65249 0.59751
H_a H_a 0.47751 0.90237 0.65249
H_a H_a 0.02245 0.84759 0.59751
H_a H_a 0.02245 0.59751 0.65249
H_a H_a 0.02245 0.65249 0.90237
H_a H_a 0.02245 0.90237 0.84759
H_a H_a 0.15252 0.97766 0.90237
H_a H_a 0.40241 0.97766 0.84759
H_a H_a 0.34763 0.97766 0.59751
H_a H_a 0.09755 0.97766 0.65249
H_a H_a 0.15252 0.52241 0.59751
H_a H_a 0.40241 0.52241 0.65249
H_a H_a 0.34763 0.52241 0.90237
H_a H_a 0.09755 0.52241 0.84759
H_a H_a 0.15252 0.84759 0.77249
H_a H_a 0.40241 0.90237 0.77249
H_a H_a 0.34763 0.65249 0.77249
H_a H_a 0.09755 0.59751 0.77249
H_a H_a 0.15252 0.65249 0.72759
H_a H_a 0.40241 0.59751 0.72759
H_a H_a 0.34763 0.84759 0.72759
H_a H_a 0.09755 0.90237 0.72759
H_a H_a 0.34763 0.77249 0.84759
H_a H_a 0.09755 0.77249 0.90237
H_a H_a 0.15252 0.77249 0.65249
H_a H_a 0.40241 0.77249 0.59751
H_a H_a 0.34763 0.72759 0.65249
H_a H_a 0.09755 0.72759 0.59751
H_a H_a 0.15252 0.72759 0.84759
H_a H_a 0.40241 0.72759 0.90237
H_a H_a 0.34763 0.65249 0.72759
H_a H_a 0.09755 0.59751 0.72759
H_a H_a 0.15252 0.84759 0.72759
H_a H_a 0.40241 0.90237 0.72759
H_a H_a 0.34763 0.84759 0.77249
H_a H_a 0.09755 0.90237 0.77249
H_a H_a 0.15252 0.65249 0.77249
H_a H_a 0.40241 0.59751 0.77249
H_a H_a 0.15252 0.72759 0.65249
H_a H_a 0.40241 0.72759 0.59751
H_a H_a 0.34763 0.72759 0.84759
H_a H_a 0.09755 0.72759 0.90237
H_a H_a 0.15252 0.77249 0.84759
H_a H_a 0.40241 0.77249 0.90237
H_a H_a 0.34763 0.77249 0.65249
H_a H_a 0.09755 0.77249 0.59751
H_a H_a 0.27234 0.65249 0.84759
H_a H_a 0.27234 0.90237 0.90237
H_a H_a 0.27234 0.84759 0.65249
H_a H_a 0.27234 0.59751 0.59751
H_a H_a 0.22762 0.65249 0.65249
H_a H_a 0.22762 0.90237 0.59751
H_a H_a 0.22762 0.84759 0.84759
H_a H_a 0.22762 0.59751 0.90237
H_a H_a 0.22762 0.84759 0.65249
H_a H_a 0.22762 0.59751 0.59751
H_a H_a 0.22762 0.65249 0.84759
H_a H_a 0.22762 0.90237 0.90237
H_a H_a 0.27234 0.84759 0.84759
H_a H_a 0.27234 0.59751 0.90237
H_a H_a 0.27234 0.65249 0.65249
H_a H_a 0.27234 0.90237 0.59751
Zn_a Zn_a 0.64668 0.10336 0.10336
Zn_a Zn_a 0.89676 0.14672 0.10336
Zn_a Zn_a 0.85321 0.39679 0.10336
Zn_a Zn_a 0.60332 0.35324 0.10336
Zn_a Zn_a 0.64668 0.39679 0.39679
Zn_a Zn_a 0.89676 0.35324 0.39679
Zn_a Zn_a 0.85321 0.10336 0.39679
Zn_a Zn_a 0.60332 0.14672 0.39679
Zn_a Zn_a 0.60332 0.14672 0.10336
Zn_a Zn_a 0.60332 0.39679 0.14672
Zn_a Zn_a 0.60332 0.35324 0.39679
Zn_a Zn_a 0.60332 0.10336 0.35324
Zn_a Zn_a 0.89676 0.14672 0.39679
Zn_a Zn_a 0.89676 0.39679 0.35324
Zn_a Zn_a 0.89676 0.35324 0.10336
Zn_a Zn_a 0.89676 0.10336 0.14672
Zn_a Zn_a 0.85321 0.10336 0.10336
Zn_a Zn_a 0.60332 0.10336 0.14672
Zn_a Zn_a 0.64668 0.10336 0.39679
Zn_a Zn_a 0.89676 0.10336 0.35324
Zn_a Zn_a 0.85321 0.39679 0.39679
Zn_a Zn_a 0.60332 0.39679 0.35324
Zn_a Zn_a 0.64668 0.39679 0.10336
Zn_a Zn_a 0.89676 0.39679 0.14672
Zn_a Zn_a 0.64668 0.35324 0.35324
Zn_a Zn_a 0.85321 0.14672 0.35324
Zn_a Zn_a 0.64668 0.14672 0.14672
Zn_a Zn_a 0.85321 0.35324 0.14672
Zn_a Zn_a 0.85321 0.35324 0.35324
Zn_a Zn_a 0.64668 0.35324 0.14672
Zn_a Zn_a 0.85321 0.14672 0.14672
Zn_a Zn_a 0.64668 0.14672 0.35324
O_a O_a 0.62500 0.12504 0.12504
O_a O_a 0.87508 0.12504 0.12504
O_a O_a 0.87508 0.37492 0.12504
O_a O_a 0.62500 0.37492 0.12504
O_a O_a 0.62500 0.37492 0.37492
O_a O_a 0.87508 0.37492 0.37492
O_a O_a 0.87508 0.12504 0.37492
O_a O_a 0.62500 0.12504 0.37492
O_b O_b 0.64087 0.10897 0.06697
O_b O_b 0.89095 0.14091 0.06697
O_b O_b 0.85901 0.39099 0.06697
O_b O_b 0.60913 0.35905 0.06697
O_b O_b 0.64087 0.39099 0.43299
O_b O_b 0.89095 0.35905 0.43299
O_b O_b 0.85901 0.10897 0.43299
O_b O_b 0.60913 0.14091 0.43299
O_b O_b 0.56693 0.14091 0.10897
O_b O_b 0.56693 0.39099 0.14091
O_b O_b 0.56693 0.35905 0.39099
O_b O_b 0.56693 0.10897 0.35905
O_b O_b 0.93295 0.14091 0.39099
O_b O_b 0.93295 0.39099 0.35905
O_b O_b 0.93295 0.35905 0.10897
O_b O_b 0.93295 0.10897 0.14091
O_b O_b 0.85901 0.06697 0.10897
O_b O_b 0.60913 0.06697 0.14091
O_b O_b 0.64087 0.06697 0.39099
O_b O_b 0.89095 0.06697 0.35905
O_b O_b 0.85901 0.43299 0.39099
O_b O_b 0.60913 0.43299 0.35905
O_b O_b 0.64087 0.43299 0.10897
O_b O_b 0.89095 0.43299 0.14091
O_b O_b 0.85901 0.39099 0.43299
O_b O_b 0.60913 0.35905 0.43299
O_b O_b 0.64087 0.10897 0.43299
O_b O_b 0.89095 0.14091 0.43299
O_b O_b 0.85901 0.10897 0.06697
O_b O_b 0.60913 0.14091 0.06697
O_b O_b 0.64087 0.39099 0.06697
O_b O_b 0.89095 0.35905 0.06697
O_b O_b 0.93295 0.35905 0.39099
O_b O_b 0.93295 0.10897 0.35905
O_b O_b 0.93295 0.14091 0.10897
O_b O_b 0.93295 0.39099 0.14091
O_b O_b 0.56693 0.35905 0.10897
O_b O_b 0.56693 0.10897 0.14091
O_b O_b 0.56693 0.14091 0.39099
O_b O_b 0.56693 0.39099 0.35905
O_b O_b 0.64087 0.43299 0.39099
O_b O_b 0.89095 0.43299 0.35905
O_b O_b 0.85901 0.43299 0.10897
O_b O_b 0.60913 0.43299 0.14091
O_b O_b 0.64087 0.06697 0.10897
O_b O_b 0.89095 0.06697 0.14091
O_b O_b 0.85901 0.06697 0.39099
O_b O_b 0.60913 0.06697 0.35905
O_b O_b 0.64087 0.35905 0.31705
O_b O_b 0.89095 0.39099 0.31705
O_b O_b 0.85901 0.14091 0.31705
O_b O_b 0.60913 0.10897 0.31705
O_b O_b 0.64087 0.14091 0.18291
O_b O_b 0.89095 0.10897 0.18291
O_b O_b 0.85901 0.35905 0.18291
O_b O_b 0.60913 0.39099 0.18291
O_b O_b 0.85901 0.31705 0.35905
O_b O_b 0.60913 0.31705 0.39099
O_b O_b 0.64087 0.31705 0.14091
O_b O_b 0.89095 0.31705 0.10897
O_b O_b 0.85901 0.18291 0.14091
O_b O_b 0.60913 0.18291 0.10897
O_b O_b 0.64087 0.18291 0.35905
O_b O_b 0.89095 0.18291 0.39099
O_b O_b 0.85901 0.14091 0.18291
O_b O_b 0.60913 0.10897 0.18291
O_b O_b 0.64087 0.35905 0.18291
O_b O_b 0.89095 0.39099 0.18291
O_b O_b 0.85901 0.35905 0.31705
O_b O_b 0.60913 0.39099 0.31705
O_b O_b 0.64087 0.14091 0.31705
O_b O_b 0.89095 0.10897 0.31705
O_b O_b 0.64087 0.18291 0.14091
O_b O_b 0.89095 0.18291 0.10897
O_b O_b 0.85901 0.18291 0.35905
O_b O_b 0.60913 0.18291 0.39099
O_b O_b 0.64087 0.31705 0.35905
O_b O_b 0.89095 0.31705 0.39099
O_b O_b 0.85901 0.31705 0.14091
O_b O_b 0.60913 0.31705 0.10897
O_b O_b 0.81701 0.14091 0.35905
O_b O_b 0.81701 0.39099 0.39099
O_b O_b 0.81701 0.35905 0.14091
O_b O_b 0.81701 0.10897 0.10897
O_b O_b 0.68307 0.14091 0.14091
O_b O_b 0.68307 0.39099 0.10897
O_b O_b 0.68307 0.35905 0.35905
O_b O_b 0.68307 0.10897 0.39099
O_b O_b 0.68307 0.35905 0.14091
O_b O_b 0.68307 0.10897 0.10897
O_b O_b 0.68307 0.14091 0.35905
O_b O_b 0.68307 0.39099 0.39099
O_b O_b 0.81701 0.35905 0.35905
O_b O_b 0.81701 0.10897 0.39099
O_b O_b 0.81701 0.14091 0.14091
O_b O_b 0.81701 0.39099 0.10897
C_a C_a 0.62500 0.12504 0.05574
C_a C_a 0.87508 0.12504 0.05574
C_a C_a 0.87508 0.37492 0.05574
C_a C_a 0.62500 0.37492 0.05574
C_a C_a 0.62500 0.37492 0.44441
C_a C_a 0.87508 0.37492 0.44441
C_a C_a 0.87508 0.12504 0.44441
C_a C_a 0.62500 0.12504 0.44441
C_a C_a 0.55571 0.12504 0.12504
C_a C_a 0.55571 0.37492 0.12504
C_a C_a 0.55571 0.37492 0.37492
C_a C_a 0.55571 0.12504 0.37492
C_a C_a 0.94437 0.12504 0.37492
C_a C_a 0.94437 0.37492 0.37492
C_a C_a 0.94437 0.37492 0.12504
C_a C_a 0.94437 0.12504 0.12504
C_a C_a 0.87508 0.05574 0.12504
C_a C_a 0.62500 0.05574 0.12504
C_a C_a 0.62500 0.05574 0.37492
C_a C_a 0.87508 0.05574 0.37492
C_a C_a 0.87508 0.44441 0.37492
C_a C_a 0.62500 0.44441 0.37492
C_a C_a 0.62500 0.44441 0.12504
C_a C_a 0.87508 0.44441 0.12504
C_a C_a 0.62500 0.37492 0.30563
C_a C_a 0.87508 0.37492 0.30563
C_a C_a 0.87508 0.12504 0.30563
C_a C_a 0.62500 0.12504 0.30563
C_a C_a 0.62500 0.12504 0.19433
C_a C_a 0.87508 0.12504 0.19433
C_a C_a 0.87508 0.37492 0.19433
C_a C_a 0.62500 0.37492 0.19433
C_a C_a 0.87508 0.30563 0.37492
C_a C_a 0.62500 0.30563 0.37492
C_a C_a 0.62500 0.30563 0.12504
C_a C_a 0.87508 0.30563 0.12504
C_a C_a 0.87508 0.19433 0.12504
C_a C_a 0.62500 0.19433 0.12504
C_a C_a 0.62500 0.19433 0.37492
C_a C_a 0.87508 0.19433 0.37492
C_a C_a 0.80559 0.12504 0.37492
C_a C_a 0.80559 0.37492 0.37492
C_a C_a 0.80559 0.37492 0.12504
C_a C_a 0.80559 0.12504 0.12504
C_a C_a 0.69429 0.12504 0.12504
C_a C_a 0.69429 0.37492 0.12504
C_a C_a 0.69429 0.37492 0.37492
C_a C_a 0.69429 0.12504 0.37492
C_b C_b 0.62500 0.12504 0.02690
C_b C_b 0.87508 0.12504 0.02690
C_b C_b 0.87508 0.37492 0.02690
C_b C_b 0.62500 0.37492 0.02690
C_b C_b 0.62500 0.37492 0.47306
C_b C_b 0.87508 0.37492 0.47306
C_b C_b 0.87508 0.12504 0.47306
C_b C_b 0.62500 0.12504 0.47306
C_b C_b 0.52687 0.12504 0.12504
C_b C_b 0.52687 0.37492 0.12504
C_b C_b 0.52687 0.37492 0.37492
C_b C_b 0.52687 0.12504 0.37492
C_b C_b 0.97302 0.12504 0.37492
C_b C_b 0.97302 0.37492 0.37492
C_b C_b 0.97302 0.37492 0.12504
C_b C_b 0.97302 0.12504 0.12504
C_b C_b 0.87508 0.02690 0.12504
C_b C_b 0.62500 0.02690 0.12504
C_b C_b 0.62500 0.02690 0.37492
C_b C_b 0.87508 0.02690 0.37492
C_b C_b 0.87508 0.47306 0.37492
C_b C_b 0.62500 0.47306 0.37492
C_b C_b 0.62500 0.47306 0.12504
C_b C_b 0.87508 0.47306 0.12504
C_b C_b 0.62500 0.37492 0.27698
C_b C_b 0.87508 0.37492 0.27698
C_b C_b 0.87508 0.12504 0.27698
C_b C_b 0.62500 0.12504 0.27698
C_b C_b 0.62500 0.12504 0.22317
C_b C_b 0.87508 0.12504 0.22317
C_b C_b 0.87508 0.37492 0.22317
C_b C_b 0.62500 0.37492 0.22317
C_b C_b 0.87508 0.27698 0.37492
C_b C_b 0.62500 0.27698 0.37492
C_b C_b 0.62500 0.27698 0.12504
C_b C_b 0.87508 0.27698 0.12504
C_b C_b 0.87508 0.22317 0.12504
C_b C_b 0.62500 0.22317 0.12504
C_b C_b 0.62500 0.22317 0.37492
C_b C_b 0.87508 0.22317 0.37492
C_b C_b 0.77694 0.12504 0.37492
C_b C_b 0.77694 0.37492 0.37492
C_b C_b 0.77694 0.37492 0.12504
C_b C_b 0.77694 0.12504 0.12504
C_b C_b 0.72313 0.12504 0.12504
C_b C_b 0.72313 0.37492 0.12504
C_b C_b 0.72313 0.37492 0.37492
C_b C_b 0.72313 0.12504 0.37492
C_c C_c 0.64145 0.10859 0.01336
C_c C_c 0.89153 0.14149 0.01336
C_c C_c 0.85862 0.39138 0.01336
C_c C_c 0.60855 0.35847 0.01336
C_c C_c 0.64145 0.39138 0.48661
C_c C_c 0.89153 0.35847 0.48661
C_c C_c 0.85862 0.10859 0.48661
C_c C_c 0.60855 0.14149 0.48661
C_c C_c 0.51351 0.14149 0.10859
C_c C_c 0.51351 0.39138 0.14149
C_c C_c 0.51351 0.35847 0.39138
C_c C_c 0.51351 0.10859 0.35847
C_c C_c 0.98657 0.14149 0.39138
C_c C_c 0.98657 0.39138 0.35847
C_c C_c 0.98657 0.35847 0.10859
C_c C_c 0.98657 0.10859 0.14149
C_c C_c 0.85862 0.01336 0.10859
C_c C_c 0.60855 0.01336 0.14149
C_c C_c 0.64145 0.01336 0.39138
C_c C_c 0.89153 0.01336 0.35847
C_c C_c 0.85862 0.48661 0.39138
C_c C_c 0.60855 0.48661 0.35847
C_c C_c 0.64145 0.48661 0.10859
C_c C_c 0.89153 0.48661 0.14149
C_c C_c 0.85862 0.39138 0.48661
C_c C_c 0.60855 0.35847 0.48661
C_c C_c 0.64145 0.10859 0.48661
C_c C_c 0.89153 0.14149 0.48661
C_c C_c 0.85862 0.10859 0.01336
C_c C_c 0.60855 0.14149 0.01336
C_c C_c 0.64145 0.39138 0.01336
C_c C_c 0.89153 0.35847 0.01336
C_c C_c 0.98657 0.35847 0.39138
C_c C_c 0.98657 0.10859 0.35847
C_c C_c 0.98657 0.14149 0.10859
C_c C_c 0.98657 0.39138 0.14149
C_c C_c 0.51351 0.35847 0.10859
C_c C_c 0.51351 0.10859 0.14149
C_c C_c 0.51351 0.14149 0.39138
C_c C_c 0.51351 0.39138 0.35847
C_c C_c 0.64145 0.48661 0.39138
C_c C_c 0.89153 0.48661 0.35847
C_c C_c 0.85862 0.48661 0.10859
C_c C_c 0.60855 0.48661 0.14149
C_c C_c 0.64145 0.01336 0.10859
C_c C_c 0.89153 0.01336 0.14149
C_c C_c 0.85862 0.01336 0.39138
C_c C_c 0.60855 0.01336 0.35847
C_c C_c 0.64145 0.35847 0.26343
C_c C_c 0.89153 0.39138 0.26343
C_c C_c 0.85862 0.14149 0.26343
C_c C_c 0.60855 0.10859 0.26343
C_c C_c 0.64145 0.14149 0.23653
C_c C_c 0.89153 0.10859 0.23653
C_c C_c 0.85862 0.35847 0.23653
C_c C_c 0.60855 0.39138 0.23653
C_c C_c 0.85862 0.26343 0.35847
C_c C_c 0.60855 0.26343 0.39138
C_c C_c 0.64145 0.26343 0.14149
C_c C_c 0.89153 0.26343 0.10859
C_c C_c 0.85862 0.23653 0.14149
C_c C_c 0.60855 0.23653 0.10859
C_c C_c 0.64145 0.23653 0.35847
C_c C_c 0.89153 0.23653 0.39138
C_c C_c 0.85862 0.14149 0.23653
C_c C_c 0.60855 0.10859 0.23653
C_c C_c 0.64145 0.35847 0.23653
C_c C_c 0.89153 0.39138 0.23653
C_c C_c 0.85862 0.35847 0.26343
C_c C_c 0.60855 0.39138 0.26343
C_c C_c 0.64145 0.14149 0.26343
C_c C_c 0.89153 0.10859 0.26343
C_c C_c 0.64145 0.23653 0.14149
C_c C_c 0.89153 0.23653 0.10859
C_c C_c 0.85862 0.23653 0.35847
C_c C_c 0.60855 0.23653 0.39138
C_c C_c 0.64145 0.26343 0.35847
C_c C_c 0.89153 0.26343 0.39138
C_c C_c 0.85862 0.26343 0.14149
C_c C_c 0.60855 0.26343 0.10859
C_c C_c 0.76339 0.14149 0.35847
C_c C_c 0.76339 0.39138 0.39138
C_c C_c 0.76339 0.35847 0.14149
C_c C_c 0.76339 0.10859 0.10859
C_c C_c 0.73649 0.14149 0.14149
C_c C_c 0.73649 0.39138 0.10859
C_c C_c 0.73649 0.35847 0.35847
C_c C_c 0.73649 0.10859 0.39138
C_c C_c 0.73649 0.35847 0.14149
C_c C_c 0.73649 0.10859 0.10859
C_c C_c 0.73649 0.14149 0.35847
C_c C_c 0.73649 0.39138 0.39138
C_c C_c 0.76339 0.35847 0.35847
C_c C_c 0.76339 0.10859 0.39138
C_c C_c 0.76339 0.14149 0.14149
C_c C_c 0.76339 0.39138 0.10859
H_a H_a 0.65249 0.09755 0.02245
H_a H_a 0.90237 0.15252 0.02245
H_a H_a 0.84759 0.40241 0.02245
H_a H_a 0.59751 0.34763 0.02245
H_a H_a 0.65249 0.40241 0.47751
H_a H_a 0.90237 0.34763 0.47751
H_a H_a 0.84759 0.09755 0.47751
H_a H_a 0.59751 0.15252 0.47751
H_a H_a 0.52241 0.15252 0.09755
H_a H_a 0.52241 0.40241 0.15252
H_a H_a 0.52241 0.34763 0.40241
H_a H_a 0.52241 0.09755 0.34763
H_a H_a 0.97766 0.15252 0.40241
H_a H_a 0.97766 0.40241 0.34763
H_a H_a 0.97766 0.34763 0.09755
H_a H_a 0.97766 0.09755 0.15252
H_a H_a 0.84759 0.02245 0.09755
H_a H_a 0.59751 0.02245 0.15252
H_a H_a 0.65249 0.02245 0.40241
H_a H_a 0.90237 0.02245 0.34763
H_a H_a 0.84759 0.47751 0.40241
H_a H_a 0.59751 0.47751 0.34763
H_a H_a 0.65249 0.47751 0.09755
H_a H_a 0.90237 0.47751 0.15252
H_a H_a 0.84759 0.40241 0.47751
H_a H_a 0.59751 0.34763 0.47751
H_a H_a 0.65249 0.09755 0.47751
H_a H_a 0.90237 0.15252 0.47751
H_a H_a 0.84759 0.09755 0.02245
H_a H_a 0.59751 0.15252 0.02245
H_a H_a 0.65249 0.40241 0.02245
H_a H_a 0.90237 0.34763 0.02245
H_a H_a 0.97766 0.34763 0.40241
H_a H_a 0.97766 0.09755 0.34763
H_a H_a 0.97766 0.15252 0.09755
H_a H_a 0.97766 0.40241 0.15252
H_a H_a 0.52241 0.34763 0.09755
H_a H_a 0.52241 0.09755 0.15252
H_a H_a 0.52241 0.15252 0.40241
H_a H_a 0.52241 0.40241 0.34763
H_a H_a 0.65249 0.47751 0.40241
H_a H_a 0.90237 0.47751 0.34763
H_a H_a 0.84759 0.47751 0.09755
H_a H_a 0.59751 0.47751 0.15252
H_a H_a 0.65249 0.02245 0.09755
H_a H_a 0.90237 0.02245 0.15252
H_a H_a 0.84759 0.02245 0.40241
H_a H_a 0.59751 0.02245 0.34763
H_a H_a 0.65249 0.34763 0.27234
H_a H_a 0.90237 0.40241 0.27234
H_a H_a 0.84759 0.15252 0.27234
H_a H_a 0.59751 0.09755 0.27234
H_a H_a 0.65249 0.15252 0.22762
H_a H_a 0.90237 0.09755 0.22762
H_a H_a 0.84759 0.34763 0.22762
H_a H_a 0.59751 0.40241 0.22762
H_a H_a 0.84759 0.27234 0.34763
H_a H_a 0.59751 0.27234 0.40241
H_a H_a 0.65249 0.27234 0.15252
H_a H_a 0.90237 0.27234 0.09755
H_a H_a 0.84759 0.22762 0.15252
H_a H_a 0.59751 0.22762 0.09755
H_a H_a 0.65249 0.22762 0.34763
H_a H_a 0.90237 0.22762 0.40241
H_a H_a 0.84759 0.15252 0.22762
H_a H_a 0.59751 0.09755 0.22762
H_a H_a 0.65249 0.34763 0.22762
H_a H_a 0.90237 0.40241 0.22762
H_a H_a 0.84759 0.34763 0.27234
H_a H_a 0.59751 0.40241 0.27234
H_a H_a 0.65249 0.15252 0.27234
H_a H_a 0.90237 0.09755 0.27234
H_a H_a 0.65249 0.22762 0.15252
H_a H_a 0.90237 0.22762 0.09755
H_a H_a 0.84759 0.22762 0.34763
H_a H_a 0.59751 0.22762 0.40241
H_a H_a 0.65249 0.27234 0.34763
H_a H_a 0.90237 0.27234 0.40241
H_a H_a 0.84759 0.27234 0.15252
H_a H_a 0.59751 0.27234 0.09755
H_a H_a 0.77249 0.15252 0.34763
H_a H_a 0.77249 0.40241 0.40241
H_a H_a 0.77249 0.34763 0.15252
H_a H_a 0.77249 0.09755 0.09755
H_a H_a 0.72759 0.15252 0.15252
H_a H_a 0.72759 0.40241 0.09755
H_a H_a 0.72759 0.34763 0.34763
H_a H_a 0.72759 0.09755 0.40241
H_a H_a 0.72759 0.34763 0.15252
H_a H_a 0.72759 0.09755 0.09755
H_a H_a 0.72759 0.15252 0.34763
H_a H_a 0.72759 0.40241 0.40241
H_a H_a 0.77249 0.34763 0.34763
H_a H_a 0.77249 0.09755 0.40241
H_a H_a 0.77249 0.15252 0.15252
H_a H_a 0.77249 0.40241 0.09755
Zn_a Zn_a 0.64668 0.10336 0.60332
Zn_a Zn_a 0.89676 0.14672 0.60332
Zn_a Zn_a 0.85321 0.39679 0.60332
Zn_a Zn_a 0.60332 0.35324 0.60332
Zn_a Zn_a 0.64668 0.39679 0.89676
Zn_a Zn_a 0.89676 0.35324 0.89676
Zn_a Zn_a 0.85321 0.10336 0.89676
Zn_a Zn_a 0.60332 0.14672 0.89676
Zn_a Zn_a 0.60332 0.14672 0.60332
Zn_a Zn_a 0.60332 0.39679 0.64668
Zn_a Zn_a 0.60332 0.35324 0.89676
Zn_a Zn_a 0.60332 0.10336 0.85321
Zn_a Zn_a 0.89676 0.14672 0.89676
Zn_a Zn_a 0.89676 0.39679 0.85321
Zn_a Zn_a 0.89676 0.35324 0.60332
Zn_a Zn_a 0.89676 0.10336 0.64668
Zn_a Zn_a 0.85321 0.10336 0.60332
Zn_a Zn_a 0.60332 0.10336 0.64668
Zn_a Zn_a 0.64668 0.10336 0.89676
Zn_a Zn_a 0.89676 0.10336 0.85321
Zn_a Zn_a 0.85321 0.39679 0.89676
Zn_a Zn_a 0.60332 0.39679 0.85321
Zn_a Zn_a 0.64668 0.39679 0.60332
Zn_a Zn_a 0.89676 0.39679 0.64668
Zn_a Zn_a 0.64668 0.35324 0.85321
Zn_a Zn_a 0.85321 0.14672 0.85321
Zn_a Zn_a 0.64668 0.14672 0.64668
Zn_a Zn_a 0.85321 0.35324 0.64668
Zn_a Zn_a 0.85321 0.35324 0.85321
Zn_a Zn_a 0.64668 0.35324 0.64668
Zn_a Zn_a 0.85321 0.14672 0.64668
Zn_a Zn_a 0.64668 0.14672 0.85321
O_a O_a 0.62500 0.12504 0.62500
O_a O_a 0.87508 0.12504 0.62500
O_a O_a 0.87508 0.37492 0.62500
O_a O_a 0.62500 0.37492 0.62500
O_a O_a 0.62500 0.37492 0.87508
O_a O_a 0.87508 0.37492 0.87508
O_a O_a 0.87508 0.12504 0.87508
O_a O_a 0.62500 0.12504 0.87508
O_b O_b 0.64087 0.10897 0.56693
O_b O_b 0.89095 0.14091 0.56693
O_b O_b 0.85901 0.39099 0.56693
O_b O_b 0.60913 0.35905 0.56693
O_b O_b 0.64087 0.39099 0.93295
O_b O_b 0.89095 0.35905 0.93295
O_b O_b 0.85901 0.10897 0.93295
O_b O_b 0.60913 0.14091 0.93295
O_b O_b 0.56693 0.14091 0.60913
O_b O_b 0.56693 0.39099 0.64087
O_b O_b 0.56693 0.35905 0.89095
O_b O_b 0.56693 0.10897 0.85901
O_b O_b 0.93295 0.14091 0.89095
O_b O_b 0.93295 0.39099 0.85901
O_b O_b 0.93295 0.35905 0.60913
O_b O_b 0.93295 0.10897 0.64087
O_b O_b 0.85901 0.06697 0.60913
O_b O_b 0.60913 0.06697 0.64087
O_b O_b 0.64087 0.06697 0.89095
O_b O_b 0.89095 0.06697 0.85901
O_b O_b 0.85901 0.43299 0.89095
O_b O_b 0.60913 0.43299 0.85901
O_b O_b 0.64087 0.43299 0.60913
O_b O_b 0.89095 0.43299 0.64087
O_b O_b 0.85901 0.39099 0.93295
O_b O_b 0.60913 0.35905 0.93295
O_b O_b 0.64087 0.10897 0.93295
O_b O_b 0.89095 0.14091 0.93295
O_b O_b 0.85901 0.10897 0.56693
O_b O_b 0.60913 0.14091 0.56693
O_b O_b 0.64087 0.39099 0.56693
O_b O_b 0.89095 0.35905 0.56693
O_b O_b 0.93295 0.35905 0.89095
O_b O_b 0.93295 0.10897 0.85901
O_b O_b 0.93295 0.14091 0.60913
O_b O_b 0.93295 0.39099 0.64087
O_b O_b 0.56693 0.35905 0.60913
O_b O_b 0.56693 0.10897 0.64087
O_b O_b 0.56693 0.14091 0.89095
O_b O_b 0.56693 0.39099 0.85901
O_b O_b 0.64087 0.43299 0.89095
O_b O_b 0.89095 0.43299 0.85901
O_b O_b 0.85901 0.43299 0.60913
O_b O_b 0.60913 0.43299 0.64087
O_b O_b 0.64087 0.06697 0.60913
O_b O_b 0.89095 0.06697 0.64087
O_b O_b 0.85901 0.06697 0.89095
O_b O_b 0.60913 0.06697 0.85901
O_b O_b 0.64087 0.35905 0.81701
O_b O_b 0.89095 0.39099 0.81701
O_b O_b 0.85901 0.14091 0.81701
O_b O_b 0.60913 0.10897 0.81701
O_b O_b 0.64087 0.14091 0.68307
O_b O_b 0.89095 0.10897 0.68307
O_b O_b 0.85901 0.35905 0.68307
O_b O_b 0.60913 0.39099 0.68307
O_b O_b 0.85901 0.31705 0.85901
O_b O_b 0.60913 0.31705 0.89095
O_b O_b 0.64087 0.31705 0.64087
O_b O_b 0.89095 0.31705 0.60913
O_b O_b 0.85901 0.18291 0.64087
O_b O_b 0.60913 0.18291 0.60913
O_b O_b 0.64087 0.18291 0.85901
O_b O_b 0.89095 0.18291 0.89095
O_b O_b 0.85901 0.14091 0.68307
O_b O_b 0.60913 0.10897 0.68307
O_b O_b 0.64087 0.35905 0.68307
O_b O_b 0.89095 0.39099 0.68307
O_b O_b 0.85901 0.35905 0.81701
O_b O_b 0.60913 0.39099 0.81701
O_b O_b 0.64087 0.14091 0.81701
O_b O_b 0.89095 0.10897 0.81701
O_b O_b 0.64087 0.18291 0.64087
O_b O_b 0.89095 0.18291 0.60913
O_b O_b 0.85901 0.18291 0.85901
O_b O_b 0.60913 0.18291 0.89095
O_b O_b 0.64087 0.31705 0.85901
O_b O_b 0.89095 0.31705 0.89095
O_b O_b 0.85901 0.31705 0.64087
O_b O_b 0.60913 0.31705 0.60913
O_b O_b 0.81701 0.14091 0.85901
O_b O_b 0.81701 0.39099 0.89095
O_b O_b 0.81701 0.35905 0.64087
O_b O_b 0.81701 0.10897 0.60913
O_b O_b 0.68307 0.14091 0.64087
O_b O_b 0.68307 0.39099 0.60913
O_b O_b 0.68307 0.35905 0.85901
O_b O_b 0.68307 0.10897 0.89095
O_b O_b 0.68307 0.35905 0.64087
O_b O_b 0.68307 0.10897 0.60913
O_b O_b 0.68307 0.14091 0.85901
O_b O_b 0.68307 0.39099 0.89095
O_b O_b 0.81701 0.35905 0.85901
O_b O_b 0.81701 0.10897 0.89095
O_b O_b 0.81701 0.14091 0.64087
O_b O_b 0.81701 0.39099 0.60913
C_a C_a 0.62500 0.12504 0.55571
C_a C_a 0.87508 0.12504 0.55571
C_a C_a 0.87508 0.37492 0.55571
C_a C_a 0.62500 0.37492 0.55571
C_a C_a 0.62500 0.37492 0.94437
C_a C_a 0.87508 0.37492 0.94437
C_a C_a 0.87508 0.12504 0.94437
C_a C_a 0.62500 0.12504 0.94437
C_a C_a 0.55571 0.12504 0.62500
C_a C_a 0.55571 0.37492 0.62500
C_a C_a 0.55571 0.37492 0.87508
C_a C_a 0.55571 0.12504 0.87508
C_a C_a 0.94437 0.12504 0.87508
C_a C_a 0.94437 0.37492 0.87508
C_a C_a 0.94437 0.37492 0.62500
C_a C_a 0.94437 0.12504 0.62500
C_a C_a 0.87508 0.05574 0.62500
C_a C_a 0.62500 0.05574 0.62500
C_a C_a 0.62500 0.05574 0.87508
C_a C_a 0.87508 0.05574 0.87508
C_a C_a 0.87508 0.44441 0.87508
C_a C_a 0.62500 0.44441 0.87508
C_a C_a 0.62500 0.44441 0.62500
C_a C_a 0.87508 0.44441 0.62500
C_a C_a 0.62500 0.37492 0.80559
C_a C_a 0.87508 0.37492 0.80559
C_a C_a 0.87508 0.12504 0.80559
C_a C_a 0.62500 0.12504 0.80559
C_a C_a 0.62500 0.12504 0.69429
C_a C_a 0.87508 0.12504 0.69429
C_a C_a 0.87508 0.37492 0.69429
C_a C_a 0.62500 0.37492 0.69429
C_a C_a 0.87508 0.30563 0.87508
C_a C_a 0.62500 0.30563 0.87508
C_a C_a 0.62500 0.30563 0.62500
C_a C_a 0.87508 0.30563 0.62500
C_a C_a 0.87508 0.19433 0.62500
C_a C_a 0.62500 0.19433 0.62500
C_a C_a 0.62500 0.19433 0.87508
C_a C_a 0.87508 0.19433 0.87508
C_a C_a 0.80559 0.12504 0.87508
C_a C_a 0.80559 0.37492 0.87508
C_a C_a 0.80559 0.37492 0.62500
C_a C_a 0.80559 0.12504 0.62500
C_a C_a 0.69429 0.12504 0.62500
C_a C_a 0.69429 0.37492 0.62500
C_a C_a 0.69429 0.37492 0.87508
C_a C_a 0.69429 0.12504 0.87508
C_b C_b 0.62500 0.12504 0.52687
C_b C_b 0.87508 0.12504 0.52687
C_b C_b 0.87508 0.37492 0.52687
C_b C_b 0.62500 0.37492 0.52687
C_b C_b 0.62500 0.37492 0.97302
C_b C_b 0.87508 0.37492 0.97302
C_b C_b 0.87508 0.12504 0.97302
C_b C_b 0.62500 0.12504 0.97302
C_b C_b 0.52687 0.12504 0.62500
C_b C_b 0.52687 0.37492 0.62500
C_b C_b 0.52687 0.37492 0.87508
C_b C_b 0.52687 0.12504 0.87508
C_b C_b 0.97302 0.12504 0.87508
C_b C_b 0.97302 0.37492 0.87508
C_b C_b 0.97302 0.37492 0.62500
C_b C_b 0.97302 0.12504 0.62500
C_b C_b 0.87508 0.02690 0.62500
C_b C_b 0.62500 0.02690 0.62500
C_b C_b 0.62500 0.02690 0.87508
C_b C_b 0.87508 0.02690 0.87508
C_b C_b 0.87508 0.47306 0.87508
C_b C_b 0.62500 0.47306 0.87508
C_b C_b 0.62500 0.47306 0.62500
C_b C_b 0.87508 0.47306 0.62500
C_b C_b 0.62500 0.37492 0.77694
C_b C_b 0.87508 0.37492 0.77694
C_b C_b 0.87508 0.12504 0.77694
C_b C_b 0.62500 0.12504 0.77694
C_b C_b 0.62500 0.12504 0.72313
C_b C_b 0.87508 0.12504 0.72313
C_b C_b 0.87508 0.37492 0.72313
C_b C_b 0.62500 0.37492 0.72313
C_b C_b 0.87508 0.27698 0.87508
C_b C_b 0.62500 0.27698 0.87508
C_b C_b 0.62500 0.27698 0.62500
C_b C_b 0.87508 0.27698 0.62500
C_b C_b 0.87508 0.22317 0.62500
C_b C_b 0.62500 0.22317 0.62500
C_b C_b 0.62500 0.22317 0.87508
C_b C_b 0.87508 0.22317 0.87508
C_b C_b 0.77694 0.12504 0.87508
C_b C_b 0.77694 0.37492 0.87508
C_b C_b 0.77694 0.37492 0.62500
C_b C_b 0.77694 0.12504 0.62500
C_b C_b 0.72313 0.12504 0.62500
C_b C_b 0.72313 0.37492 0.62500
C_b C_b 0.72313 0.37492 0.87508
C_b C_b 0.72313 0.12504 0.87508
C_c C_c 0.64145 0.10859 0.51351
C_c C_c 0.89153 0.14149 0.51351
C_c C_c 0.85862 0.39138 0.51351
C_c C_c 0.60855 0.35847 0.51351
C_c C_c 0.64145 0.39138 0.98657
C_c C_c 0.89153 0.35847 0.98657
C_c C_c 0.85862 0.10859 0.98657
C_c C_c 0.60855 0.14149 0.98657
C_c C_c 0.51351 0.14149 0.60855
C_c C_c 0.51351 0.39138 0.64145
C_c C_c 0.51351 0.35847 0.89153
C_c C_c 0.51351 0.10859 0.85862
C_c C_c 0.98657 0.14149 0.89153
C_c C_c 0.98657 0.39138 0.85862
C_c C_c 0.98657 0.35847 0.60855
C_c C_c 0.98657 0.10859 0.64145
C_c C_c 0.85862 0.01336 0.60855
C_c C_c 0.60855 0.01336 0.64145
C_c C_c 0.64145 0.01336 0.89153
C_c C_c 0.89153 0.01336 0.85862
C_c C_c 0.85862 0.48661 0.89153
C_c C_c 0.60855 0.48661 0.85862
C_c C_c 0.64145 0.48661 0.60855
C_c C_c 0.89153 0.48661 0.64145
C_c C_c 0.85862 0.39138 0.98657
C_c C_c 0.60855 0.35847 0.98657
C_c C_c 0.64145 0.10859 0.98657
C_c C_c 0.89153 0.14149 0.98657
C_c C_c 0.85862 0.10859 0.51351
C_c C_c 0.60855 0.14149 0.51351
C_c C_c 0.64145 0.39138 0.51351
C_c C_c 0.89153 0.35847 0.51351
C_c C_c 0.98657 0.35847 0.89153
C_c C_c 0.98657 0.10859 0.85862
C_c C_c 0.98657 0.14149 0.60855
C_c C_c 0.98657 0.39138 0.64145
C_c C_c 0.51351 0.35847 0.60855
C_c C_c 0.51351 0.10859 0.64145
C_c C_c 0.51351 0.14149 0.89153
C_c C_c 0.51351 0.39138 0.85862
C_c C_c 0.64145 0.48661 0.89153
C_c C_c 0.89153 0.48661 0.85862
C_c C_c 0.85862 0.48661 0.60855
C_c C_c 0.60855 0.48661 0.64145
C_c C_c 0.64145 0.01336 0.60855
C_c C_c 0.89153 0.01336 0.64145
C_c C_c 0.85862 0.01336 0.89153
C_c C_c 0.60855 0.01336 0.85862
C_c C_c 0.64145 0.35847 0.76339
C_c C_c 0.89153 0.39138 0.76339
C_c C_c 0.85862 0.14149 0.76339
C_c C_c 0.60855 0.10859 0.76339
C_c C_c 0.64145 0.14149 0.73649
C_c C_c 0.89153 0.10859 0.73649
C_c C_c 0.85862 0.35847 0.73649
C_c C_c 0.60855 0.39138 0.73649
C_c C_c 0.85862 0.26343 0.85862
C_c C_c 0.60855 0.26343 0.89153
C_c C_c 0.64145 0.26343 0.64145
C_c C_c 0.89153 0.26343 0.60855
C_c C_c 0.85862 0.23653 0.64145
C_c C_c 0.60855 0.23653 0.60855
C_c C_c 0.64145 0.23653 0.85862
C_c C_c 0.89153 0.23653 0.89153
C_c C_c 0.85862 0.14149 0.73649
C_c C_c 0.60855 0.10859 0.73649
C_c C_c 0.64145 0.35847 0.73649
C_c C_c 0.89153 0.39138 0.73649
C_c C_c 0.85862 0.35847 0.76339
C_c C_c 0.60855 0.39138 0.76339
C_c C_c 0.64145 0.14149 0.76339
C_c C_c 0.89153 0.10859 0.76339
C_c C_c 0.64145 0.23653 0.64145
C_c C_c 0.89153 0.23653 0.60855
C_c C_c 0.85862 0.23653 0.85862
C_c C_c 0.60855 0.23653 0.89153
C_c C_c 0.64145 0.26343 0.85862
C_c C_c 0.89153 0.26343 0.89153
C_c C_c 0.85862 0.26343 0.64145
C_c C_c 0.60855 0.26343 0.60855
C_c C_c 0.76339 0.14149 0.85862
C_c C_c 0.76339 0.39138 0.89153
C_c C_c 0.76339 0.35847 0.64145
C_c C_c 0.76339 0.10859 0.60855
C_c C_c 0.73649 0.14149 0.64145
C_c C_c 0.73649 0.39138 0.60855
C_c C_c 0.73649 0.35847 0.85862
C_c C_c 0.73649 0.10859 0.89153
C_c C_c 0.73649 0.35847 0.64145
C_c C_c 0.73649 0.10859 0.60855
C_c C_c 0.73649 0.14149 0.85862
C_c C_c 0.73649 0.39138 0.89153
C_c C_c 0.76339 0.35847 0.85862
C_c C_c 0.76339 0.10859 0.89153
C_c C_c 0.76339 0.14149 0.64145
C_c C_c 0.76339 0.39138 0.60855
H_a H_a 0.65249 0.09755 0.52241
H_a H_a 0.90237 0.15252 0.52241
H_a H_a 0.84759 0.40241 0.52241
H_a H_a 0.59751 0.34763 0.52241
H_a H_a 0.65249 0.40241 0.97766
H_a H_a 0.90237 0.34763 0.97766
H_a H_a 0.84759 0.09755 0.97766
H_a H_a 0.59751 0.15252 0.97766
H_a H_a 0.52241 0.15252 0.59751
H_a H_a 0.52241 0.40241 0.65249
H_a H_a 0.52241 0.34763 0.90237
H_a H_a 0.52241 0.09755 0.84759
H_a H_a 0.97766 0.15252 0.90237
H_a H_a 0.97766 0.40241 0.84759
H_a H_a 0.97766 0.34763 0.59751
H_a H_a 0.97766 0.09755 0.65249
H_a H_a 0.84759 0.02245 0.59751
H_a H_a 0.59751 0.02245 0.65249
H_a H_a 0.65249 0.02245 0.90237
H_a H_a 0.90237 0.02245 0.84759
H_a H_a 0.84759 0.47751 0.90237
H_a H_a 0.59751 0.47751 0.84759
H_a H_a 0.65249 0.47751 0.59751
H_a H_a 0.90237 0.47751 0.65249
H_a H_a 0.84759 0.40241 0.97766
H_a H_a 0.59751 0.34763 0.97766
H_a H_a 0.65249 0.09755 0.97766
H_a H_a 0.90237 0.15252 0.97766
H_a H_a 0.84759 0.09755 0.52241
H_a H_a 0.59751 0.15252 0.52241
H_a H_a 0.65249 0.40241 0.52241
H_a H_a 0.90237 0.34763 0.52241
H_a H_a 0.97766 0.34763 0.90237
H_a H_a 0.97766 0.09755 0.84759
H_a H_a 0.97766 0.15252 0.59751
H_a H_a 0.97766 0.40241 0.65249
H_a H_a 0.52241 0.34763 0.59751
H_a H_a 0.52241 0.09755 0.65249
H_a H_a 0.52241 0.15252 0.90237
H_a H_a 0.52241 0.40241 0.84759
H_a H_a 0.65249 0.47751 0.90237
H_a H_a 0.90237 0.47751 0.84759
H_a H_a 0.84759 0.47751 0.59751
H_a H_a 0.59751 0.47751 0.65249
H_a H_a 0.65249 0.02245 0.59751
H_a H_a 0.90237 0.02245 0.65249
H_a H_a 0.84759 0.02245 0.90237
H_a H_a 0.59751 0.02245 0.84759
H_a H_a 0.65249 0.34763 0.77249
H_a H_a 0.90237 0.40241 0.77249
H_a H_a 0.84759 0.15252 0.77249
H_a H_a 0.59751 0.09755 0.77249
H_a H_a 0.65249 0.15252 0.72759
H_a H_a 0.90237 0.09755 0.72759
H_a H_a 0.84759 0.34763 0.72759
H_a H_a 0.59751 0.40241 0.72759
H_a H_a 0.84759 0.27234 0.84759
H_a H_a 0.59751 0.27234 0.90237
H_a H_a 0.65249 0.27234 0.65249
H_a H_a 0.90237 0.27234 0.59751
H_a H_a 0.84759 0.22762 0.65249
H_a H_a 0.59751 0.22762 0.59751
H_a H_a 0.65249 0.22762 0.84759
H_a H_a 0.90237 0.22762 0.90237
H_a H_a 0.84759 0.15252 0.72759
H_a H_a 0.59751 0.09755 0.72759
H_a H_a 0.65249 0.34763 0.72759
H_a H_a 0.90237 0.40241 0.72759
H_a H_a 0.84759 0.34763 0.77249
H_a H_a 0.59751 0.40241 0.77249
H_a H_a 0.65249 0.15252 0.77249
H_a H_a 0.90237 0.09755 0.77249
H_a H_a 0.65249 0.22762 0.65249
H_a H_a 0.90237 0.22762 0.59751
H_a H_a 0.84759 0.22762 0.84759
H_a H_a 0.59751 0.22762 0.90237
H_a H_a 0.65249 0.27234 0.84759
H_a H_a 0.90237 0.27234 0.90237
H_a H_a 0.84759 0.27234 0.65249
H_a H_a 0.59751 0.27234 0.59751
H_a H_a 0.77249 0.15252 0.84759
H_a H_a 0.77249 0.40241 0.90237
H_a H_a 0.77249 0.34763 0.65249
H_a H_a 0.77249 0.09755 0.59751
H_a H_a 0.72759 0.15252 0.65249
H_a H_a 0.72759 0.40241 0.59751
H_a H_a 0.72759 0.34763 0.84759
H_a H_a 0.72759 0.09755 0.90237
H_a H_a 0.72759 0.34763 0.65249
H_a H_a 0.72759 0.09755 0.59751
H_a H_a 0.72759 0.15252 0.84759
H_a H_a 0.72759 0.40241 0.90237
H_a H_a 0.77249 0.34763 0.84759
H_a H_a 0.77249 0.09755 0.90237
H_a H_a 0.77249 0.15252 0.65249
H_a H_a 0.77249 0.40241 0.59751
Zn_a Zn_a 0.64668 0.60332 0.10336
Zn_a Zn_a 0.89676 0.64668 0.10336
Zn_a Zn_a 0.85321 0.89676 0.10336
Zn_a Zn_a 0.60332 0.85321 0.10336
Zn_a Zn_a 0.64668 0.89676 0.39679
Zn_a Zn_a 0.89676 0.85321 0.39679
Zn_a Zn_a 0.85321 0.60332 0.39679
Zn_a Zn_a 0.60332 0.64668 0.39679
Zn_a Zn_a 0.60332 0.64668 0.10336
Zn_a Zn_a 0.60332 0.89676 0.14672
Zn_a Zn_a 0.60332 0.85321 0.39679
Zn_a Zn_a 0.60332 0.60332 0.35324
Zn_a Zn_a 0.89676 0.64668 0.39679
Zn_a Zn_a 0.89676 0.89676 0.35324
Zn_a Zn_a 0.89676 0.85321 0.10336
Zn_a Zn_a 0.89676 0.60332 0.14672
Zn_a Zn_a 0.85321 0.60332 0.10336
Zn_a Zn_a 0.60332 0.60332 0.14672
Zn_a Zn_a 0.64668 0.60332 0.39679
Zn_a Zn_a 0.89676 0.60332 0.35324
Zn_a Zn_a 0.85321 0.89676 0.39679
Zn_a Zn_a 0.60332 0.89676 0.35324
Zn_a Zn_a 0.64668 0.89676 0.10336
Zn_a Zn_a 0.89676 0.89676 0.14672
Zn_a Zn_a 0.64668 0.85321 0.35324
Zn_a Zn_a 0.85321 0.64668 0.35324
Zn_a Zn_a 0.64668 0.64668 0.14672
Zn_a Zn_a 0.85321 0.85321 0.14672
Zn_a Zn_a 0.85321 0.85321 0.35324
Zn_a Zn_a 0.64668 0.85321 0.14672
Zn_a Zn_a 0.85321 0.64668 0.14672
Zn_a Zn_a 0.64668 0.64668 0.35324
O_a O_a 0.62500 0.62500 0.12504
O_a O_a 0.87508 0.62500 0.12504
O_a O_a 0.87508 0.87508 0.12504
O_a O_a 0.62500 0.87508 0.12504
O_a O_a 0.62500 0.87508 0.37492
O_a O_a 0.87508 0.87508 0.37492
O_a O_a 0.87508 0.62500 0.37492
O_a O_a 0.62500 0.62500 0.37492
O_b O_b 0.64087 0.60913 0.06697
O_b O_b 0.89095 0.64087 0.06697
O_b O_b 0.85901 0.89095 0.06697
O_b O_b 0.60913 0.85901 0.06697
O_b O_b 0.64087 0.89095 0.43299
O_b O_b 0.89095 0.85901 0.43299
O_b O_b 0.85901 0.60913 0.43299
O_b O_b 0.60913 0.64087 0.43299
O_b O_b 0.56693 0.64087 0.10897
O_b O_b 0.56693 0.89095 0.14091
O_b O_b 0.56693 0.85901 0.39099
O_b O_b 0.56693 0.60913 0.35905
O_b O_b 0.93295 0.64087 0.39099
O_b O_b 0.93295 0.89095 0.35905
O_b O_b 0.93295 0.85901 0.10897
O_b O_b 0.93295 0.60913 0.14091
O_b O_b 0.85901 0.56693 0.10897
O_b O_b 0.60913 0.56693 0.14091
O_b O_b 0.64087 0.56693 0.39099
O_b O_b 0.89095 0.56693 0.35905
O_b O_b 0.85901 0.93295 0.39099
O_b O_b 0.60913 0.93295 0.35905
O_b O_b 0.64087 0.93295 0.10897
O_b O_b 0.89095 0.93295 0.14091
O_b O_b 0.85901 0.89095 0.43299
O_b O_b 0.60913 0.85901 0.43299
O_b O_b 0.64087 0.60913 0.43299
O_b O_b 0.89095 0.64087 0.43299
O_b O_b 0.85901 0.60913 0.06697
O_b O_b 0.60913 0.64087 0.06697
O_b O_b 0.64087 0.89095 0.06697
O_b O_b 0.89095 0.85901 0.06697
O_b O_b 0.93295 0.85901 0.39099
O_b O_b 0.93295 0.60913 0.35905
O_b O_b 0.93295 0.64087 0.10897
O_b O_b 0.93295 0.89095 0.14091
O_b O_b 0.56693 0.85901 0.10897
O_b O_b 0.56693 0.60913 0.14091
O_b O_b 0.56693 0.64087 0.39099
O_b O_b 0.56693 0.89095 0.35905
O_b O_b 0.64087 0.93295 0.39099
O_b O_b 0.89095 0.93295 0.35905
O_b O_b 0.85901 0.93295 0.10897
O_b O_b 0.60913 0.93295 0.14091
O_b O_b 0.64087 0.56693 0.10897
O_b O_b 0.89095 0.56693 0.14091
O_b O_b 0.85901 0.56693 0.39099
O_b O_b 0.60913 0.56693 0.35905
O_b O_b 0.64087 0.85901 0.31705
O_b O_b 0.89095 0.89095 0.31705
O_b O_b 0.85901 0.64087 0.31705
O_b O_b 0.60913 0.60913 0.31705
O_b O_b 0.64087 0.64087 0.18291
O_b O_b 0.89095 0.60913 0.18291
O_b O_b 0.85901 0.85901 0.18291
O_b O_b 0.60913 0.89095 0.18291
O_b O_b 0.85901 0.81701 0.35905
O_b O_b 0.60913 0.81701 0.39099
O_b O_b 0.64087 0.81701 0.14091
O_b O_b 0.89095 0.81701 0.10897
O_b O_b 0.85901 0.68307 0.14091
O_b O_b 0.60913 0.68307 0.10897
O_b O_b 0.64087 0.68307 0.35905
O_b O_b 0.89095 0.68307 0.39099
O_b O_b 0.85901 0.64087 0.18291
O_b O_b 0.60913 0.60913 0.18291
O_b O_b 0.64087 0.85901 0.18291
O_b O_b 0.89095 0.89095 0.18291
O_b O_b 0.85901 0.85901 0.31705
O_b O_b 0.60913 0.89095 0.31705
O_b O_b 0.64087 0.64087 0.31705
O_b O_b 0.89095 0.60913 0.31705
O_b O_b 0.64087 0.68307 0.14091
O_b O_b 0.89095 0.68307 0.10897
O_b O_b 0.85901 0.68307 0.35905
O_b O_b 0.60913 0.68307 0.39099
O_b O_b 0.64087 0.81701 0.35905
O_b O_b 0.89095 0.81701 0.39099
O_b O_b 0.85901 0.81701 0.14091
O_b O_b 0.60913 0.81701 0.10897
O_b O_b 0.81701 0.64087 0.35905
O_b O_b 0.81701 0.89095 0.39099
O_b O_b 0.81701 0.85901 0.14091
O_b O_b 0.81701 0.60913 0.10897
O_b O_b 0.68307 0.64087 0.14091
O_b O_b 0.68307 0.89095 0.10897
O_b O_b 0.68307 0.85901 0.35905
O_b O_b 0.68307 0.60913 0.39099
O_b O_b 0.68307 0.85901 0.14091
O_b O_b 0.68307 0.60913 0.10897
O_b O_b 0.68307 0.64087 0.35905
O_b O_b 0.68307 0.89095 0.39099
O_b O_b 0.81701 0.85901 0.35905
O_b O_b 0.81701 0.60913 0.39099
O_b O_b 0.81701 0.64087 0.14091
O_b O_b 0.81701 0.89095 0.10897
C_a C_a 0.62500 0.62500 0.05574
C_a C_a 0.87508 0.62500 0.05574
C_a C_a 0.87508 0.87508 0.05574
C_a C_a 0.62500 0.87508 0.05574
C_a C_a 0.62500 0.87508 0.44441
C_a C_a 0.87508 0.87508 0.44441
C_a C_a 0.87508 0.62500 0.44441
C_a C_a 0.62500 0.62500 0.44441
C_a C_a 0.55571 0.62500 0.12504
C_a C_a 0.55571 0.87508 0.12504
C_a C_a 0.55571 0.87508 0.37492
C_a C_a 0.55571 0.62500 0.37492
C_a C_a 0.94437 0.62500 0.37492
C_a C_a 0.94437 0.87508 0.37492
C_a C_a 0.94437 0.87508 0.12504
C_a C_a 0.94437 0.62500 0.12504
C_a C_a 0.87508 0.55571 0.12504
C_a C_a 0.62500 0.55571 0.12504
C_a C_a 0.62500 0.55571 0.37492
C_a C_a 0.87508 0.55571 0.37492
C_a C_a 0.87508 0.94437 0.37492
C_a C_a 0.62500 0.94437 0.37492
C_a C_a 0.62500 0.94437 0.12504
C_a C_a 0.87508 0.94437 0.12504
C_a C_a 0.62500 0.87508 0.30563
C_a C_a 0.87508 0.87508 0.30563
C_a C_a 0.87508 0.62500 0.30563
C_a C_a 0.62500 0.62500 0.30563
C_a C_a 0.62500 0.62500 0.19433
C_a C_a 0.87508 0.62500 0.19433
C_a C_a 0.87508 0.87508 0.19433
C_a C_a 0.62500 0.87508 0.19433
C_a C_a 0.87508 0.80559 0.37492
C_a C_a 0.62500 0.80559 0.37492
C_a C_a 0.62500 0.80559 0.12504
C_a C_a 0.87508 0.80559 0.12504
C_a C_a 0.87508 0.69429 0.12504
C_a C_a 0.62500 0.69429 0.12504
C_a C_a 0.62500 0.69429 0.37492
C_a C_a 0.87508 0.69429 0.37492
C_a C_a 0.80559 0.62500 0.37492
C_a C_a 0.80559 0.87508 0.37492
C_a C_a 0.80559 0.87508 0.12504
C_a C_a 0.80559 0.62500 0.12504
C_a C_a 0.69429 0.62500 0.12504
C_a C_a 0.69429 0.87508 0.12504
C_a C_a 0.69429 0.87508 0.37492
C_a C_a 0.69429 0.62500 0.37492
C_b C_b 0.62500 0.62500 0.02690
C_b C_b 0.87508 0.62500 0.02690
C_b C_b 0.87508 0.87508 0.02690
C_b C_b 0.62500 0.87508 0.02690
C_b C_b 0.62500 0.87508 0.47306
C_b C_b 0.87508 0.87508 0.47306
C_b C_b 0.87508 0.62500 0.47306
C_b C_b 0.62500 0.62500 0.47306
C_b C_b 0.52687 0.62500 0.12504
C_b C_b 0.52687 0.87508 0.12504
C_b C_b 0.52687 0.87508 0.37492
C_b C_b 0.52687 0.62500 0.37492
C_b C_b 0.97302 0.62500 0.37492
C_b C_b 0.97302 0.87508 0.37492
C_b C_b 0.97302 0.87508 0.12504
C_b C_b 0.97302 0.62500 0.12504
C_b C_b 0.87508 0.52687 0.12504
C_b C_b 0.62500 0.52687 0.12504
C_b C_b 0.62500 0.52687 0.37492
C_b C_b 0.87508 0.52687 0.37492
C_b C_b 0.87508 0.97302 0.37492
C_b C_b 0.62500 0.97302 0.37492
C_b C_b 0.62500 0.97302 0.12504
C_b C_b 0.87508 0.97302 0.12504
C_b C_b 0.62500 0.87508 0.27698
C_b C_b 0.87508 0.87508 0.27698
C_b C_b 0.87508 0.62500 0.27698
C_b C_b 0.62500 0.62500 0.27698
C_b C_b 0.62500 0.62500 0.22317
C_b C_b 0.87508 0.62500 0.22317
C_b C_b 0.87508 0.87508 0.22317
C_b C_b 0.62500 0.87508 0.22317
C_b C_b 0.87508 0.77694 0.37492
C_b C_b 0.62500 0.77694 0.37492
C_b C_b 0.62500 0.77694 0.12504
C_b C_b 0.87508 0.77694 0.12504
C_b C_b 0.87508 0.72313 0.12504
C_b C_b 0.62500 0.72313 0.12504
C_b C_b 0.62500 0.72313 0.37492
C_b C_b 0.87508 0.72313 0.37492
C_b C_b 0.77694 0.62500 0.37492
C_b C_b 0.77694 0.87508 0.37492
C_b C_b 0.77694 0.87508 0.12504
C_b C_b 0.77694 0.62500 0.12504
C_b C_b 0.72313 0.62500 0.12504
C_b C_b 0.72313 0.87508 0.12504
C_b C_b 0.72313 0.87508 0.37492
C_b C_b 0.72313 0.62500 0.37492
C_c C_c 0.64145 0.60855 0.01336
C_c C_c 0.89153 0.64145 0.01336
C_c C_c 0.85862 0.89153 0.01336
C_c C_c 0.60855 0.85862 0.01336
C_c C_c 0.64145 0.89153 0.48661
C_c C_c 0.89153 0.85862 0.48661
C_c C_c 0.85862 0.60855 0.48661
C_c C_c 0.60855 0.64145 0.48661
C_c C_c 0.51351 0.64145 0.10859
C_c C_c 0.51351 0.89153 0.14149
C_c C_c 0.51351 0.85862 0.39138
C_c C_c 0.51351 0.60855 0.35847
C_c C_c 0.98657 0.64145 0.39138
C_c C_c 0.98657 0.89153 0.35847
C_c C_c 0.98657 0.85862 0.10859
C_c C_c 0.98657 0.60855 0.14149
C_c C_c 0.85862 0.51351 0.10859
C_c C_c 0.60855 0.51351 0.14149
C_c C_c 0.64145 0.51351 0.39138
C_c C_c 0.89153 0.51351 0.35847
C_c C_c 0.85862 0.98657 0.39138
C_c C_c 0.60855 0.98657 0.35847
C_c C_c 0.64145 0.98657 0.10859
C_c C_c 0.89153 0.98657 0.14149
C_c C_c 0.85862 0.89153 0.48661
C_c C_c 0.60855 0.85862 0.48661
C_c C_c 0.64145 0.60855 0.48661
C_c C_c 0.89153 0.64145 0.48661
C_c C_c 0.85862 0.60855 0.01336
C_c C_c 0.60855 0.64145 0.01336
C_c C_c 0.64145 0.89153 0.01336
C_c C_c 0.89153 0.85862 0.01336
C_c C_c 0.98657 0.85862 0.39138
C_c C_c 0.98657 0.60855 0.35847
C_c C_c 0.98657 0.64145 0.10859
C_c C_c 0.98657 0.89153 0.14149
C_c C_c 0.51351 0.85862 0.10859
C_c C_c 0.51351 0.60855 0.14149
C_c C_c 0.51351 0.64145 0.39138
C_c C_c 0.51351 0.89153 0.35847
C_c C_c 0.64145 0.98657 0.39138
C_c C_c 0.89153 0.98657 0.35847
C_c C_c 0.85862 0.98657 0.10859
C_c C_c 0.60855 0.98657 0.14149
C_c C_c 0.64145 0.51351 0.10859
C_c C_c 0.89153 0.51351 0.14149
C_c C_c 0.85862 0.51351 0.39138
C_c C_c 0.60855 0.51351 0.35847
C_c C_c 0.64145 0.85862 0.26343
C_c C_c 0.89153 0.89153 0.26343
C_c C_c 0.85862 0.64145 0.26343
C_c C_c 0.60855 0.60855 0.26343
C_c C_c 0.64145 0.64145 0.23653
C_c C_c 0.89153 0.60855 0.23653
C_c C_c 0.85862 0.85862 0.23653
C_c C_c 0.60855 0.89153 0.23653
C_c C_c 0.85862 0.76339 0.35847
C_c C_c 0.60855 0.76339 0.39138
C_c C_c 0.64145 0.76339 0.14149
C_c C_c 0.89153 0.76339 0.10859
C_c C_c 0.85862 0.73649 0.14149
C_c C_c 0.60855 0.73649 0.10859
C_c C_c 0.64145 0.73649 0.35847
C_c C_c 0.89153 0.73649 0.39138
C_c C_c 0.85862 0.64145 0.23653
C_c C_c 0.60855 0.60855 0.23653
C_c C_c 0.64145 0.85862 0.23653
C_c C_c 0.89153 0.89153 0.23653
C_c C_c 0.85862 0.85862 0.26343
C_c C_c 0.60855 0.89153 0.26343
C_c C_c 0.64145 0.64145 0.26343
C_c C_c 0.89153 0.60855 0.26343
C_c C_c 0.64145 0.73649 0.14149
C_c C_c 0.89153 0.73649 0.10859
C_c C_c 0.85862 0.73649 0.35847
C_c C_c 0.60855 0.73649 0.39138
C_c C_c 0.64145 0.76339 0.35847
C_c C_c 0.89153 0.76339 0.39138
C_c C_c 0.85862 0.76339 0.14149
C_c C_c 0.60855 0.76339 0.10859
C_c C_c 0.76339 0.64145 0.35847
C_c C_c 0.76339 0.89153 0.39138
C_c C_c 0.76339 0.85862 0.14149
C_c C_c 0.76339 0.60855 0.10859
C_c C_c 0.73649 0.64145 0.14149
C_c C_c 0.73649 0.89153 0.10859
C_c C_c 0.73649 0.85862 0.35847
C_c C_c 0.73649 0.60855 0.39138
C_c C_c 0.73649 0.85862 0.14149
C_c C_c 0.73649 0.60855 0.10859
C_c C_c 0.73649 0.64145 0.35847
C_c C_c 0.73649 0.89153 0.39138
C_c C_c 0.76339 0.85862 0.35847
C_c C_c 0.76339 0.60855 0.39138
C_c C_c 0.76339 0.64145 0.14149
C_c C_c 0.76339 0.89153 0.10859
H_a H_a 0.65249 0.59751 0.02245
H_a H_a 0.90237 0.65249 0.02245
H_a H_a 0.84759 0.90237 0.02245
H_a H_a 0.59751 0.84759 0.02245
H_a H_a 0.65249 0.90237 0.47751
H_a H_a 0.90237 0.84759 0.47751
H_a H_a 0.84759 0.59751 0.47751
H_a H_a 0.59751 0.65249 0.47751
H_a H_a 0.52241 0.65249 0.09755
H_a H_a 0.52241 0.90237 0.15252
H_a H_a 0.52241 0.84759 0.40241
H_a H_a 0.52241 0.59751 0.34763
H_a H_a 0.97766 0.65249 0.40241
H_a H_a 0.97766 0.90237 0.34763
H_a H_a 0.97766 0.84759 0.09755
H_a H_a 0.97766 0.59751 0.15252
H_a H_a 0.84759 0.52241 0.09755
H_a H_a 0.59751 0.52241 0.15252
H_a H_a 0.65249 0.52241 0.40241
H_a H_a 0.90237 0.52241 0.34763
H_a H_a 0.84759 0.97766 0.40241
H_a H_a 0.59751 0.97766 0.34763
H_a H_a 0.65249 0.97766 0.09755
H_a H_a 0.90237 0.97766 0.15252
H_a H_a 0.84759 0.90237 0.47751
H_a H_a 0.59751 0.84759 0.47751
H_a H_a 0.65249 0.59751 0.47751
H_a H_a 0.90237 0.65249 0.47751
H_a H_a 0.84759 0.59751 0.02245
H_a H_a 0.59751 0.65249 0.02245
H_a H_a 0.65249 0.90237 0.02245
H_a H_a 0.90237 0.84759 0.02245
H_a H_a 0.97766 0.84759 0.40241
H_a H_a 0.97766 0.59751 0.34763
H_a H_a 0.97766 0.65249 0.09755
H_a H_a 0.97766 0.90237 0.15252
H_a H_a 0.52241 0.84759 0.09755
H_a H_a 0.52241 0.59751 0.15252
H_a H_a 0.52241 0.65249 0.40241
H_a H_a 0.52241 0.90237 0.34763
H_a H_a 0.65249 0.97766 0.40241
H_a H_a 0.90237 0.97766 0.34763
H_a H_a 0.84759 0.97766 0.09755
H_a H_a 0.59751 0.97766 0.15252
H_a H_a 0.65249 0.52241 0.09755
H_a H_a 0.90237 0.52241 0.15252
H_a H_a 0.84759 0.52241 0.40241
H_a H_a 0.59751 0.52241 0.34763
H_a H_a 0.65249 0.84759 0.27234
H_a H_a 0.90237 0.90237 0.27234
H_a H_a 0.84759 0.65249 0.27234
H_a H_a 0.59751 0.59751 0.27234
H_a H_a 0.65249 0.65249 0.22762
H_a H_a 0.90237 0.59751 0.22762
H_a H_a 0.84759 0.84759 0.22762
H_a H_a 0.59751 0.90237 0.22762
H_a H_a 0.84759 0.77249 0.34763
H_a H_a 0.59751 0.77249 0.40241
H_a H_a 0.65249 0.77249 0.15252
H_a H_a 0.90237 0.77249 0.09755
H_a H_a 0.84759 0.72759 0.15252
H_a H_a 0.59751 0.72759 0.09755
H_a H_a 0.65249 0.72759 0.34763
H_a H_a 0.90237 0.72759 0.40241
H_a H_a 0.84759 0.65249 0.22762
H_a H_a 0.59751 0.59751 0.22762
H_a H_a 0.65249 0.84759 0.22762
H_a H_a 0.90237 0.90237 0.22762
H_a H_a 0.84759 0.84759 0.27234
H_a H_a 0.59751 0.90237 0.27234
H_a H_a 0.65249 0.65249 0.27234
H_a H_a 0.90237 0.59751 0.27234
H_a H_a 0.65249 0.72759 0.15252
H_a H_a 0.90237 0.72759 0.09755
H_a H_a 0.84759 0.72759 0.34763
H_a H_a 0.59751 0.72759 0.40241
H_a H_a 0.65249 0.77249 0.34763
H_a H_a 0.90237 0.77249 0.40241
H_a H_a 0.84759 0.77249 0.15252
H_a H_a 0.59751 0.77249 0.09755
H_a H_a 0.77249 0.65249 0.34763
H_a H_a 0.77249 0.90237 0.40241
H_a H_a 0.77249 0.84759 0.15252
H_a H_a 0.77249 0.59751 0.09755
H_a H_a 0.72759 0.65249 0.15252
H_a H_a 0.72759 0.90237 0.09755
H_a H_a 0.72759 0.84759 0.34763
H_a H_a 0.72759 0.59751 0.40241
H_a H_a 0.72759 0.84759 0.15252
H_a H_a 0.72759 0.59751 0.09755
H_a H_a 0.72759 0.65249 0.34763
H_a H_a 0.72759 0.90237 0.40241
H_a H_a 0.77249 0.84759 0.34763
H_a H_a 0.77249 0.59751 0.40241
H_a H_a 0.77249 0.65249 0.15252
H_a H_a 0.77249 0.90237 0.09755
Zn_a Zn_a 0.64668 0.60332 0.60332
Zn_a Zn_a 0.89676 0.64668 0.60332
Zn_a Zn_a 0.85321 0.89676 0.60332
Zn_a Zn_a 0.60332 0.85321 0.60332
Zn_a Zn_a 0.64668 0.89676 0.89676
Zn_a Zn_a 0.89676 0.85321 0.89676
Zn_a Zn_a 0.85321 0.60332 0.89676
Zn_a Zn_a 0.60332 0.64668 0.89676
Zn_a Zn_a 0.60332 0.64668 0.60332
Zn_a Zn_a 0.60332 0.89676 0.64668
Zn_a Zn_a 0.60332 0.85321 0.89676
Zn_a Zn_a 0.60332 0.60332 0.85321
Zn_a Zn_a 0.89676 0.64668 0.89676
Zn_a Zn_a 0.89676 0.89676 0.85321
Zn_a Zn_a 0.89676 0.85321 0.60332
Zn_a Zn_a 0.89676 0.60332 0.64668
Zn_a Zn_a 0.85321 0.60332 0.60332
Zn_a Zn_a 0.60332 0.60332 0.64668
Zn_a Zn_a 0.64668 0.60332 0.89676
Zn_a Zn_a 0.89676 0.60332 0.85321
Zn_a Zn_a 0.85321 0.89676 0.89676
Zn_a Zn_a 0.60332 0.89676 0.85321
Zn_a Zn_a 0.64668 0.89676 0.60332
Zn_a Zn_a 0.89676 0.89676 0.64668
Zn_a Zn_a 0.64668 0.85321 0.85321
Zn_a Zn_a 0.85321 0.64668 0.85321
Zn_a Zn_a 0.64668 0.64668 0.64668
Zn_a Zn_a 0.85321 0.85321 0.64668
Zn_a Zn_a 0.85321 0.85321 0.85321
Zn_a Zn_a 0.64668 0.85321 0.64668
Zn_a Zn_a 0.85321 0.64668 0.64668
Zn_a Zn_a 0.64668 0.64668 0.85321
O_a O_a 0.62500 0.62500 0.62500
O_a O_a 0.87508 0.62500 0.62500
O_a O_a 0.87508 0.87508 0.62500
O_a O_a 0.62500 0.87508 0.62500
O_a O_a 0.62500 0.87508 0.87508
O_a O_a 0.87508 0.87508 0.87508
O_a O_a 0.87508 0.62500 0.87508
O_a O_a 0.62500 0.62500 0.87508
O_b O_b 0.64087 0.60913 0.56693
O_b O_b 0.89095 0.64087 0.56693
O_b O_b 0.85901 0.89095 0.56693
O_b O_b 0.60913 0.85901 0.56693
O_b O_b 0.64087 0.89095 0.93295
O_b O_b 0.89095 0.85901 0.93295
O_b O_b 0.85901 0.60913 0.93295
O_b O_b 0.60913 0.64087 0.93295
O_b O_b 0.56693 0.64087 0.60913
O_b O_b 0.56693 0.89095 0.64087
O_b O_b 0.56693 0.85901 0.89095
O_b O_b 0.56693 0.60913 0.85901
O_b O_b 0.93295 0.64087 0.89095
O_b O_b 0.93295 0.89095 0.85901
O_b O_b 0.93295 0.85901 0.60913
O_b O_b 0.93295 0.60913 0.64087
O_b O_b 0.85901 0.56693 0.60913
O_b O_b 0.60913 0.56693 0.64087
O_b O_b 0.64087 0.56693 0.89095
O_b O_b 0.89095 0.56693 0.85901
O_b O_b 0.85901 0.93295 0.89095
O_b O_b 0.60913 0.93295 0.85901
O_b O_b 0.64087 0.93295 0.60913
O_b O_b 0.89095 0.93295 0.64087
O_b O_b 0.85901 0.89095 0.93295
O_b O_b 0.60913 0.85901 0.93295
O_b O_b 0.64087 0.60913 0.93295
O_b O_b 0.89095 0.64087 0.93295
O_b O_b 0.85901 0.60913 0.56693
O_b O_b 0.60913 0.64087 0.56693
O_b O_b 0.64087 0.89095 0.56693
O_b O_b 0.89095 0.85901 0.56693
O_b O_b 0.93295 0.85901 0.89095
O_b O_b 0.93295 0.60913 0.85901
O_b O_b 0.93295 0.64087 0.60913
O_b O_b 0.93295 0.89095 0.64087
O_b O_b 0.56693 0.85901 0.60913
O_b O_b 0.56693 0.60913 0.64087
O_b O_b 0.56693 0.64087 0.89095
O_b O_b 0.56693 0.89095 0.85901
O_b O_b 0.64087 0.93295 0.89095
O_b O_b 0.89095 0.93295 0.85901
O_b O_b 0.85901 0.93295 0.60913
O_b O_b 0.60913 0.93295 0.64087
O_b O_b 0.64087 0.56693 0.60913
O_b O_b 0.89095 0.56693 0.64087
O_b O_b 0.85901 0.56693 0.89095
O_b O_b 0.60913 0.56693 0.85901
O_b O_b 0.64087 0.85901 0.81701
O_b O_b 0.89095 0.89095 0.81701
O_b O_b 0.85901 0.64087 0.81701
O_b O_b 0.60913 0.60913 0.81701
O_b O_b 0.64087 0.64087 0.68307
O_b O_b 0.89095 0.60913 0.68307
O_b O_b 0.85901 0.85901 0.68307
O_b O_b 0.60913 0.89095 0.68307
O_b O_b 0.85901 0.81701 0.85901
O_b O_b 0.60913 0.81701 0.89095
O_b O_b 0.64087 0.81701 0.64087
O_b O_b 0.89095 0.81701 0.60913
O_b O_b 0.85901 0.68307 0.64087
O_b O_b 0.60913 0.68307 0.60913
O_b O_b 0.64087 0.68307 0.85901
O_b O_b 0.89095 0.68307 0.89095
O_b O_b 0.85901 0.64087 0.68307
O_b O_b 0.60913 0.60913 0.68307
O_b O_b 0.64087 0.85901 0.68307
O_b O_b 0.89095 0.89095 0.68307
O_b O_b 0.85901 0.85901 0.81701
O_b O_b 0.60913 0.89095 0.81701
O_b O_b 0.64087 0.64087 0.81701
O_b O_b 0.89095 0.60913 0.81701
O_b O_b 0.64087 0.68307 0.64087
O_b O_b 0.89095 0.68307 0.60913
O_b O_b 0.85901 0.68307 0.85901
O_b O_b 0.60913 0.68307 0.89095
O_b O_b 0.64087 0.81701 0.85901
O_b O_b 0.89095 0.81701 0.89095
O_b O_b 0.85901 0.81701 0.64087
O_b O_b 0.60913 0.81701 0.60913
O_b O_b 0.81701 0.64087 0.85901
O_b O_b 0.81701 0.89095 0.89095
O_b O_b 0.81701 0.85901 0.64087
O_b O_b 0.81701 0.60913 0.60913
O_b O_b 0.68307 0.64087 0.64087
O_b O_b 0.68307 0.89095 0.60913
O_b O_b 0.68307 0.85901 0.85901
O_b O_b 0.68307 0.60913 0.89095
O_b O_b 0.68307 0.85901 0.64087
O_b O_b 0.68307 0.60913 0.60913
O_b O_b 0.68307 0.64087 0.85901
O_b O_b 0.68307 0.89095 0.89095
O_b O_b 0.81701 0.85901 0.85901
O_b O_b 0.81701 0.60913 0.89095
O_b O_b 0.81701 0.64087 0.64087
O_b O_b 0.81701 0.89095 0.60913
C_a C_a 0.62500 0.62500 0.55571
C_a C_a 0.87508 0.62500 0.55571
C_a C_a 0.87508 0.87508 0.55571
C_a C_a 0.62500 0.87508 0.55571
C_a C_a 0.62500 0.87508 0.94437
C_a C_a 0.87508 0.87508 0.94437
C_a C_a 0.87508 0.62500 0.94437
C_a C_a 0.62500 0.62500 0.94437
C_a C_a 0.55571 0.62500 0.62500
C_a C_a 0.55571 0.87508 0.62500
C_a C_a 0.55571 0.87508 0.87508
C_a C_a 0.55571 0.62500 0.87508
C_a C_a 0.94437 0.62500 0.87508
C_a C_a 0.94437 0.87508 0.87508
C_a C_a 0.94437 0.87508 0.62500
C_a C_a 0.94437 0.62500 0.62500
C_a C_a 0.87508 0.55571 0.62500
C_a C_a 0.62500 0.55571 0.62500
C_a C_a 0.62500 0.55571 0.87508
C_a C_a 0.87508 0.55571 0.87508
C_a C_a 0.87508 0.94437 0.87508
C_a C_a 0.62500 0.94437 0.87508
C_a C_a 0.62500 0.94437 0.62500
C_a C_a 0.87508 0.94437 0.62500
C_a C_a 0.62500 0.87508 0.80559
C_a C_a 0.87508 0.87508 0.80559
C_a C_a 0.87508 0.62500 0.80559
C_a C_a 0.62500 0.62500 0.80559
C_a C_a 0.62500 0.62500 0.69429
C_a C_a 0.87508 0.62500 0.69429
C_a C_a 0.87508 0.87508 0.69429
C_a C_a 0.62500 0.87508 0.69429
C_a C_a 0.87508 0.80559 0.87508
C_a C_a 0.62500 0.80559 0.87508
C_a C_a 0.62500 0.80559 0.62500
C_a C_a 0.87508 0.80559 0.62500
C_a C_a 0.87508 0.69429 0.62500
C_a C_a 0.62500 0.69429 0.62500
C_a C_a 0.62500 0.69429 0.87508
C_a C_a 0.87508 0.69429 0.87508
C_a C_a 0.80559 0.62500 0.87508
C_a C_a 0.80559 0.87508 0.87508
C_a C_a 0.80559 0.87508 0.62500
C_a C_a 0.80559 0.62500 0.62500
C_a C_a 0.69429 0.62500 0.62500
C_a C_a 0.69429 0.87508 0.62500
C_a C_a 0.69429 0.87508 0.87508
C_a C_a 0.69429 0.62500 0.87508
C_b C_b 0.62500 0.62500 0.52687
C_b C_b 0.87508 0.62500 0.52687
C_b C_b 0.87508 0.87508 0.52687
C_b C_b 0.62500 0.87508 0.52687
C_b C_b 0.62500 0.87508 0.97302
C_b C_b 0.87508 0.87508 0.97302
C_b C_b 0.87508 0.62500 0.97302
C_b C_b 0.62500 0.62500 0.97302
C_b C_b 0.52687 0.62500 0.62500
C_b C_b 0.52687 0.87508 0.62500
C_b C_b 0.52687 0.87508 0.87508
C_b C_b 0.52687 0.62500 0.87508
C_b C_b 0.97302 0.62500 0.87508
C_b C_b 0.97302 0.87508 0.87508
C_b C_b 0.97302 0.87508 0.62500
C_b C_b 0.97302 0.62500 0.62500
C_b C_b 0.87508 0.52687 0.62500
C_b C_b 0.62500 0.52687 0.62500
C_b C_b 0.62500 0.52687 0.87508
C_b C_b 0.87508 0.52687 0.87508
C_b C_b 0.87508 0.97302 0.87508
C_b C_b 0.62500 0.97302 0.87508
C_b C_b 0.62500 0.97302 0.62500
C_b C_b 0.87508 0.97302 0.62500
C_b C_b 0.62500 0.87508 0.77694
C_b C_b 0.87508 0.87508 0.77694
C_b C_b 0.87508 0.62500 0.77694
C_b C_b 0.62500 0.62500 0.77694
C_b C_b 0.62500 0.62500 0.72313
C_b C_b 0.87508 0.62500 0.72313
C_b C_b 0.87508 0.87508 0.72313
C_b C_b 0.62500 0.87508 0.72313
C_b C_b 0.87508 0.77694 0.87508
C_b C_b 0.62500 0.77694 0.87508
C_b C_b 0.62500 0.77694 0.62500
C_b C_b 0.87508 0.77694 0.62500
C_b C_b 0.87508 0.72313 0.62500
C_b C_b 0.62500 0.72313 0.62500
C_b C_b 0.62500 0.72313 0.87508
C_b C_b 0.87508 0.72313 0.87508
C_b C_b 0.77694 0.62500 0.87508
C_b C_b 0.77694 0.87508 0.87508
C_b C_b 0.77694 0.87508 0.62500
C_b C_b 0.77694 0.62500 0.62500
C_b C_b 0.72313 0.62500 0.62500
C_b C_b 0.72313 0.87508 0.62500
C_b C_b 0.72313 0.87508 0.87508
C_b C_b 0.72313 0.62500 0.87508
C_c C_c 0.64145 0.60855 0.51351
C_c C_c 0.89153 0.64145 0.51351
C_c C_c 0.85862 0.89153 0.51351
C_c C_c 0.60855 0.85862 0.51351
C_c C_c 0.64145 0.89153 0.98657
C_c C_c 0.89153 0.85862 0.98657
C_c C_c 0.85862 0.60855 0.98657
C_c C_c 0.60855 0.64145 0.98657
C_c C_c 0.51351 0.64145 0.60855
C_c C_c 0.51351 0.89153 0.64145
C_c C_c 0.51351 0.85862 0.89153
C_c C_c 0.51351 0.60855 0.85862
C_c C_c 0.98657 0.64145 0.89153
C_c C_c 0.98657 0.89153 0.85862
C_c C_c 0.98657 0.85862 0.60855
C_c C_c 0.98657 0.60855 0.64145
C_c C_c 0.85862 0.51351 0.60855
C_c C_c 0.60855 0.51351 0.64145
C_c C_c 0.64145 0.51351 0.89153
C_c C_c 0.89153 0.51351 0.85862
C_c C_c 0.85862 0.98657 0.89153
C_c C_c 0.60855 0.98657 0.85862
C_c C_c 0.64145 0.98657 0.60855
C_c C_c 0.89153 0.98657 0.64145
C_c C_c 0.85862 0.89153 0.98657
C_c C_c 0.60855 0.85862 0.98657
C_c C_c 0.64145 0.60855 0.98657
C_c C_c 0.89153 0.64145 0.98657
C_c C_c 0.85862 0.60855 0.51351
C_c C_c 0.60855 0.64145 0.51351
C_c C_c 0.64145 0.89153 0.51351
C_c C_c 0.89153 0.85862 0.51351
C_c C_c 0.98657 0.85862 0.89153
C_c C_c 0.98657 0.60855 0.85862
C_c C_c 0.98657 0.64145 0.60855
C_c C_c 0.98657 0.89153 0.64145
C_c C_c 0.51351 0.85862 0.60855
C_c C_c 0.51351 0.60855 0.64145
C_c C_c 0.51351 0.64145 0.89153
C_c C_c 0.51351 0.89153 0.85862
C_c C_c 0.64145 0.98657 0.89153
C_c C_c 0.89153 0.98657 0.85862
C_c C_c 0.85862 0.98657 0.60855
C_c C_c 0.60855 0.98657 0.64145
C_c C_c 0.64145 0.51351 0.60855
C_c C_c 0.89153 0.51351 0.64145
C_c C_c 0.85862 0.51351 0.89153
C_c C_c 0.60855 0.51351 0.85862
C_c C_c 0.64145 0.85862 0.76339
C_c C_c 0.89153 0.89153 0.76339
C_c C_c 0.85862 0.64145 0.76339
C_c C_c 0.60855 0.60855 0.76339
C_c C_c 0.64145 0.64145 0.73649
C_c C_c 0.89153 0.60855 0.73649
C_c C_c 0.85862 0.85862 0.73649
C_c C_c 0.60855 0.89153 0.73649
C_c C_c 0.85862 0.76339 0.85862
C_c C_c 0.60855 0.76339 0.89153
C_c C_c 0.64145 0.76339 0.64145
C_c C_c 0.89153 0.76339 0.60855
C_c C_c 0.85862 0.73649 0.64145
C_c C_c 0.60855 0.73649 0.60855
C_c C_c 0.64145 0.73649 0.85862
C_c C_c 0.89153 0.73649 0.89153
C_c C_c 0.85862 0.64145 0.73649
C_c C_c 0.60855 0.60855 0.73649
C_c C_c 0.64145 0.85862 0.73649
C_c C_c 0.89153 0.89153 0.73649
C_c C_c 0.85862 0.85862 0.76339
C_c C_c 0.60855 0.89153 0.76339
C_c C_c 0.64145 0.64145 0.76339
C_c C_c 0.89153 0.60855 0.76339
C_c C_c 0.64145 0.73649 0.64145
C_c C_c 0.89153 0.73649 0.60855
C_c C_c 0.85862 0.73649 0.85862
C_c C_c 0.60855 0.73649 0.89153
C_c C_c 0.64145 0.76339 0.85862
C_c C_c 0.89153 0.76339 0.89153
C_c C_c 0.85862 0.76339 0.64145
C_c C_c 0.60855 0.76339 0.60855
C_c C_c 0.76339 0.64145 0.85862
C_c C_c 0.76339 0.89153 0.89153
C_c C_c 0.76339 0.85862 0.64145
C_c C_c 0.76339 0.60855 0.60855
C_c C_c 0.73649 0.64145 0.64145
C_c C_c 0.73649 0.89153 0.60855
C_c C_c 0.73649 0.85862 0.85862
C_c C_c 0.73649 0.60855 0.89153
C_c C_c 0.73649 0.85862 0.64145
C_c C_c 0.73649 0.60855 0.60855
C_c C_c 0.73649 0.64145 0.85862
C_c C_c 0.73649 0.89153 0.89153
C_c C_c 0.76339 0.85862 0.85862
C_c C_c 0.76339 0.60855 0.89153
C_c C_c 0.76339 0.64145 0.64145
C_c C_c 0.76339 0.89153 0.60855
H_a H_a 0.65249 0.59751 0.52241
H_a H_a 0.90237 0.65249 0.52241
H_a H_a 0.84759 0.90237 0.52241
H_a H_a 0.59751 0.84759 0.52241
H_a H_a 0.65249 0.90237 0.97766
H_a H_a 0.90237 0.84759 0.97766
H_a H_a 0.84759 0.59751 0.97766
H_a H_a 0.59751 0.65249 0.97766
H_a H_a 0.52241 0.65249 0.59751
H_a H_a 0.52241 0.90237 0.65249
H_a H_a 0.52241 0.84759 0.90237
H_a H_a 0.52241 0.59751 0.84759
H_a H_a 0.97766 0.65249 0.90237
H_a H_a 0.97766 0.90237 0.84759
H_a H_a 0.97766 0.84759 0.59751
H_a H_a 0.97766 0.59751 0.65249
H_a H_a 0.84759 0.52241 0.59751
H_a H_a 0.59751 0.52241 0.65249
H_a H_a 0.65249 0.52241 0.90237
H_a H_a 0.90237 0.52241 0.84759
H_a H_a 0.84759 0.97766 0.90237
H_a H_a 0.59751 0.97766 0.84759
H_a H_a 0.65249 0.97766 0.59751
H_a H_a 0.90237 0.97766 0.65249
H_a H_a 0.84759 0.90237 0.97766
H_a H_a 0.59751 0.84759 0.97766
H_a H_a 0.65249 0.59751 0.97766
H_a H_a 0.90237 0.65249 0.97766
H_a H_a 0.84759 0.59751 0.52241
H_a H_a 0.59751 0.65249 0.52241
H_a H_a 0.65249 0.90237 0.52241
H_a H_a 0.90237 0.84759 0.52241
H_a H_a 0.97766 0.84759 0.90237
H_a H_a 0.97766 0.59751 0.84759
H_a H_a 0.97766 0.65249 0.59751
H_a H_a 0.97766 0.90237 0.65249
H_a H_a 0.52241 0.84759 0.59751
H_a H_a 0.52241 0.59751 0.65249
H_a H_a 0.52241 0.65249 0.90237
H_a H_a 0.52241 0.90237 0.84759
H_a H_a 0.65249 0.97766 0.90237
H_a H_a 0.90237 0.97766 0.84759
H_a H_a 0.84759 0.97766 0.59751
H_a H_a 0.59751 0.97766 0.65249
H_a H_a 0.65249 0.52241 0.59751
H_a H_a 0.90237 0.52241 0.65249
H_a H_a 0.84759 0.52241 0.90237
H_a H_a 0.59751 0.52241 0.84759
H_a H_a 0.65249 0.84759 0.77249
H_a H_a 0.90237 0.90237 0.77249
H_a H_a 0.84759 0.65249 0.77249
H_a H_a 0.59751 0.59751 0.77249
H_a H_a 0.65249 0.65249 0.72759
H_a H_a 0.90237 0.59751 0.72759
H_a H_a 0.84759 0.84759 0.72759
H_a H_a 0.59751 0.90237 0.72759
H_a H_a 0.84759 0.77249 0.84759
H_a H_a 0.59751 0.77249 0.90237
H_a H_a 0.65249 0.77249 0.65249
H_a H_a 0.90237 0.77249 0.59751
H_a H_a 0.84759 0.72759 0.65249
H_a H_a 0.59751 0.72759 0.59751
H_a H_a 0.65249 0.72759 0.84759
H_a H_a 0.90237 0.72759 0.90237
H_a H_a 0.84759 0.65249 0.72759
H_a H_a 0.59751 0.59751 0.72759
H_a H_a 0.65249 0.84759 0.72759
H_a H_a 0.90237 0.90237 0.72759
H_a H_a 0.84759 0.84759 0.77249
H_a H_a 0.59751 0.90237 0.77249
H_a H_a 0.65249 0.65249 0.77249
H_a H_a 0.90237 0.59751 0.77249
H_a H_a 0.65249 0.72759 0.65249
H_a H_a 0.90237 0.72759 0.59751
H_a H_a 0.84759 0.72759 0.84759
H_a H_a 0.59751 0.72759 0.90237
H_a H_a 0.65249 0.77249 0.84759
H_a H_a 0.90237 0.77249 0.90237
H_a H_a 0.84759 0.77249 0.65249
H_a H_a 0.59751 0.77249 0.59751
H_a H_a 0.77249 0.65249 0.84759
H_a H_a 0.77249 0.90237 0.90237
H_a H_a 0.77249 0.84759 0.65249
H_a H_a 0.77249 0.59751 0.59751
H_a H_a 0.72759 0.65249 0.65249
H_a H_a 0.72759 0.90237 0.59751
H_a H_a 0.72759 0.84759 0.84759
H_a H_a 0.72759 0.59751 0.90237
H_a H_a 0.72759 0.84759 0.65249
H_a H_a 0.72759 0.59751 0.59751
H_a H_a 0.72759 0.65249 0.84759
H_a H_a 0.72759 0.90237 0.90237
H_a H_a 0.77249 0.84759 0.84759
H_a H_a 0.77249 0.59751 0.90237
H_a H_a 0.77249 0.65249 0.65249
H_a H_a 0.77249 0.90237 0.59751
